/*--------------------------------*- C++ -*----------------------------------*\
| =========                 |                                                 |
| \\      /  F ield         | OpenFOAM: The Open Source CFD Toolbox           |
|  \\    /   O peration     | Version:  2506                                  |
|   \\  /    A nd           | Website:  www.openfoam.com                      |
|    \\/     M anipulation  |                                                 |
\*---------------------------------------------------------------------------*/
FoamFile
{
    version     2.0;
    format      ascii;
    arch        "LSB;label=32;scalar=64";
    class       volScalarField;
    location    "0";
    object      Cx;
}
// * * * * * * * * * * * * * * * * * * * * * * * * * * * * * * * * * * * * * //

dimensions      [0 1 0 0 0 0 0];

internalField   nonuniform List<scalar> 
40788
(
-0.0996528
-0.0956498
-0.0916957
-0.08779
-0.083932
-0.0801211
-0.0763569
-0.0726386
-0.0689658
-0.0653379
-0.0617543
-0.0582146
-0.0547181
-0.0512643
-0.0478528
-0.044483
-0.0411544
-0.0378664
-0.0346187
-0.0314106
-0.0282418
-0.0251117
-0.0220198
-0.0189658
-0.015949
-0.0129692
-0.0100258
-0.00711836
-0.00424646
-0.00140967
-0.0996528
-0.0956498
-0.0916957
-0.08779
-0.083932
-0.0801211
-0.0763569
-0.0726386
-0.0689658
-0.0653379
-0.0617543
-0.0582146
-0.0547181
-0.0512643
-0.0478528
-0.044483
-0.0411544
-0.0378664
-0.0346187
-0.0314106
-0.0282418
-0.0251117
-0.0220198
-0.0189658
-0.015949
-0.0129692
-0.0100258
-0.00711836
-0.00424646
-0.00140967
-0.0996528
-0.0956498
-0.0916957
-0.08779
-0.083932
-0.0801211
-0.0763569
-0.0726386
-0.0689658
-0.0653379
-0.0617543
-0.0582146
-0.0547181
-0.0512643
-0.0478528
-0.044483
-0.0411544
-0.0378664
-0.0346187
-0.0314106
-0.0282418
-0.0251117
-0.0220198
-0.0189658
-0.015949
-0.0129692
-0.0100258
-0.00711836
-0.00424646
-0.00140967
-0.0996528
-0.0956498
-0.0916957
-0.08779
-0.083932
-0.0801211
-0.0763569
-0.0726386
-0.0689658
-0.0653379
-0.0617543
-0.0582146
-0.0547181
-0.0512643
-0.0478528
-0.044483
-0.0411544
-0.0378664
-0.0346187
-0.0314106
-0.0282418
-0.0251117
-0.0220198
-0.0189658
-0.015949
-0.0129692
-0.0100258
-0.00711836
-0.00424646
-0.00140967
-0.0996528
-0.0956498
-0.0916957
-0.08779
-0.083932
-0.0801211
-0.0763569
-0.0726386
-0.0689658
-0.0653379
-0.0617543
-0.0582146
-0.0547181
-0.0512643
-0.0478528
-0.044483
-0.0411544
-0.0378664
-0.0346187
-0.0314106
-0.0282418
-0.0251117
-0.0220198
-0.0189658
-0.015949
-0.0129692
-0.0100258
-0.00711836
-0.00424646
-0.00140967
-0.0996528
-0.0956498
-0.0916957
-0.08779
-0.083932
-0.0801211
-0.0763569
-0.0726386
-0.0689658
-0.0653379
-0.0617543
-0.0582146
-0.0547181
-0.0512643
-0.0478528
-0.044483
-0.0411544
-0.0378664
-0.0346187
-0.0314106
-0.0282418
-0.0251117
-0.0220198
-0.0189658
-0.015949
-0.0129692
-0.0100258
-0.00711836
-0.00424646
-0.00140967
-0.0996528
-0.0956498
-0.0916957
-0.08779
-0.083932
-0.0801211
-0.0763569
-0.0726386
-0.0689658
-0.0653379
-0.0617543
-0.0582146
-0.0547181
-0.0512643
-0.0478528
-0.044483
-0.0411544
-0.0378664
-0.0346187
-0.0314106
-0.0282418
-0.0251117
-0.0220198
-0.0189658
-0.015949
-0.0129692
-0.0100258
-0.00711836
-0.00424646
-0.00140967
-0.0996528
-0.0956498
-0.0916957
-0.08779
-0.083932
-0.0801211
-0.0763569
-0.0726386
-0.0689658
-0.0653379
-0.0617543
-0.0582146
-0.0547181
-0.0512643
-0.0478528
-0.044483
-0.0411544
-0.0378664
-0.0346187
-0.0314106
-0.0282418
-0.0251117
-0.0220198
-0.0189658
-0.015949
-0.0129692
-0.0100258
-0.00711836
-0.00424646
-0.00140967
-0.0996528
-0.0956498
-0.0916957
-0.08779
-0.083932
-0.0801211
-0.0763569
-0.0726386
-0.0689658
-0.0653379
-0.0617543
-0.0582146
-0.0547181
-0.0512643
-0.0478528
-0.044483
-0.0411544
-0.0378664
-0.0346187
-0.0314106
-0.0282418
-0.0251117
-0.0220198
-0.0189658
-0.015949
-0.0129692
-0.0100258
-0.00711836
-0.00424646
-0.00140967
-0.0996528
-0.0956498
-0.0916957
-0.08779
-0.083932
-0.0801211
-0.0763569
-0.0726386
-0.0689658
-0.0653379
-0.0617543
-0.0582146
-0.0547181
-0.0512643
-0.0478528
-0.044483
-0.0411544
-0.0378664
-0.0346187
-0.0314106
-0.0282418
-0.0251117
-0.0220198
-0.0189658
-0.015949
-0.0129692
-0.0100258
-0.00711836
-0.00424646
-0.00140967
-0.0996528
-0.0956498
-0.0916957
-0.08779
-0.083932
-0.0801211
-0.0763569
-0.0726386
-0.0689658
-0.0653379
-0.0617543
-0.0582146
-0.0547181
-0.0512643
-0.0478528
-0.044483
-0.0411544
-0.0378664
-0.0346187
-0.0314106
-0.0282418
-0.0251117
-0.0220198
-0.0189658
-0.015949
-0.0129692
-0.0100258
-0.00711836
-0.00424646
-0.00140967
-0.0996528
-0.0956498
-0.0916957
-0.08779
-0.083932
-0.0801211
-0.0763569
-0.0726386
-0.0689658
-0.0653379
-0.0617543
-0.0582146
-0.0547181
-0.0512643
-0.0478528
-0.044483
-0.0411544
-0.0378664
-0.0346187
-0.0314106
-0.0282418
-0.0251117
-0.0220198
-0.0189658
-0.015949
-0.0129692
-0.0100258
-0.00711836
-0.00424646
-0.00140967
-0.0996528
-0.0956498
-0.0916957
-0.08779
-0.083932
-0.0801211
-0.0763569
-0.0726386
-0.0689658
-0.0653379
-0.0617543
-0.0582146
-0.0547181
-0.0512643
-0.0478528
-0.044483
-0.0411544
-0.0378664
-0.0346187
-0.0314106
-0.0282418
-0.0251117
-0.0220198
-0.0189658
-0.015949
-0.0129692
-0.0100258
-0.00711836
-0.00424646
-0.00140967
-0.0996528
-0.0956498
-0.0916957
-0.08779
-0.083932
-0.0801211
-0.0763569
-0.0726386
-0.0689658
-0.0653379
-0.0617543
-0.0582146
-0.0547181
-0.0512643
-0.0478528
-0.044483
-0.0411544
-0.0378664
-0.0346187
-0.0314106
-0.0282418
-0.0251117
-0.0220198
-0.0189658
-0.015949
-0.0129692
-0.0100258
-0.00711836
-0.00424646
-0.00140967
-0.0996528
-0.0956498
-0.0916957
-0.08779
-0.083932
-0.0801211
-0.0763569
-0.0726386
-0.0689658
-0.0653379
-0.0617543
-0.0582146
-0.0547181
-0.0512643
-0.0478528
-0.044483
-0.0411544
-0.0378664
-0.0346187
-0.0314106
-0.0282418
-0.0251117
-0.0220198
-0.0189658
-0.015949
-0.0129692
-0.0100258
-0.00711836
-0.00424646
-0.00140967
-0.0996528
-0.0956498
-0.0916957
-0.08779
-0.083932
-0.0801211
-0.0763569
-0.0726386
-0.0689658
-0.0653379
-0.0617543
-0.0582146
-0.0547181
-0.0512643
-0.0478528
-0.044483
-0.0411544
-0.0378664
-0.0346187
-0.0314106
-0.0282418
-0.0251117
-0.0220198
-0.0189658
-0.015949
-0.0129692
-0.0100258
-0.00711836
-0.00424646
-0.00140967
-0.0996528
-0.0956498
-0.0916957
-0.08779
-0.083932
-0.0801211
-0.0763569
-0.0726386
-0.0689658
-0.0653379
-0.0617543
-0.0582146
-0.0547181
-0.0512643
-0.0478528
-0.044483
-0.0411544
-0.0378664
-0.0346187
-0.0314106
-0.0282418
-0.0251117
-0.0220198
-0.0189658
-0.015949
-0.0129692
-0.0100258
-0.00711836
-0.00424646
-0.00140967
-0.0996528
-0.0956498
-0.0916957
-0.08779
-0.083932
-0.0801211
-0.0763569
-0.0726386
-0.0689658
-0.0653379
-0.0617543
-0.0582146
-0.0547181
-0.0512643
-0.0478528
-0.044483
-0.0411544
-0.0378664
-0.0346187
-0.0314106
-0.0282418
-0.0251117
-0.0220198
-0.0189658
-0.015949
-0.0129692
-0.0100258
-0.00711836
-0.00424646
-0.00140967
-0.0996528
-0.0956498
-0.0916957
-0.08779
-0.083932
-0.0801211
-0.0763569
-0.0726386
-0.0689658
-0.0653379
-0.0617543
-0.0582146
-0.0547181
-0.0512643
-0.0478528
-0.044483
-0.0411544
-0.0378664
-0.0346187
-0.0314106
-0.0282418
-0.0251117
-0.0220198
-0.0189658
-0.015949
-0.0129692
-0.0100258
-0.00711836
-0.00424646
-0.00140967
-0.0996528
-0.0956498
-0.0916957
-0.08779
-0.083932
-0.0801211
-0.0763569
-0.0726386
-0.0689658
-0.0653379
-0.0617543
-0.0582146
-0.0547181
-0.0512643
-0.0478528
-0.044483
-0.0411544
-0.0378664
-0.0346187
-0.0314106
-0.0282418
-0.0251117
-0.0220198
-0.0189658
-0.015949
-0.0129692
-0.0100258
-0.00711836
-0.00424646
-0.00140967
-0.0996528
-0.0956498
-0.0916957
-0.08779
-0.083932
-0.0801211
-0.0763569
-0.0726386
-0.0689658
-0.0653379
-0.0617543
-0.0582146
-0.0547181
-0.0512643
-0.0478528
-0.044483
-0.0411544
-0.0378664
-0.0346187
-0.0314106
-0.0282418
-0.0251117
-0.0220198
-0.0189658
-0.015949
-0.0129692
-0.0100258
-0.00711836
-0.00424646
-0.00140967
-0.0996528
-0.0956498
-0.0916957
-0.08779
-0.083932
-0.0801211
-0.0763569
-0.0726386
-0.0689658
-0.0653379
-0.0617543
-0.0582146
-0.0547181
-0.0512643
-0.0478528
-0.044483
-0.0411544
-0.0378664
-0.0346187
-0.0314106
-0.0282418
-0.0251117
-0.0220198
-0.0189658
-0.015949
-0.0129692
-0.0100258
-0.00711836
-0.00424646
-0.00140967
-0.0996528
-0.0956498
-0.0916957
-0.08779
-0.083932
-0.0801211
-0.0763569
-0.0726386
-0.0689658
-0.0653379
-0.0617543
-0.0582146
-0.0547181
-0.0512643
-0.0478528
-0.044483
-0.0411544
-0.0378664
-0.0346187
-0.0314106
-0.0282418
-0.0251117
-0.0220198
-0.0189658
-0.015949
-0.0129692
-0.0100258
-0.00711836
-0.00424646
-0.00140967
-0.0996528
-0.0956498
-0.0916957
-0.08779
-0.083932
-0.0801211
-0.0763569
-0.0726386
-0.0689658
-0.0653379
-0.0617543
-0.0582146
-0.0547181
-0.0512643
-0.0478528
-0.044483
-0.0411544
-0.0378664
-0.0346187
-0.0314106
-0.0282418
-0.0251117
-0.0220198
-0.0189658
-0.015949
-0.0129692
-0.0100258
-0.00711836
-0.00424646
-0.00140967
-0.0996528
-0.0956498
-0.0916957
-0.08779
-0.083932
-0.0801211
-0.0763569
-0.0726386
-0.0689658
-0.0653379
-0.0617543
-0.0582146
-0.0547181
-0.0512643
-0.0478528
-0.044483
-0.0411544
-0.0378664
-0.0346187
-0.0314106
-0.0282418
-0.0251117
-0.0220198
-0.0189658
-0.015949
-0.0129692
-0.0100258
-0.00711836
-0.00424646
-0.00140967
-0.0996528
-0.0956498
-0.0916957
-0.08779
-0.083932
-0.0801211
-0.0763569
-0.0726386
-0.0689658
-0.0653379
-0.0617543
-0.0582146
-0.0547181
-0.0512643
-0.0478528
-0.044483
-0.0411544
-0.0378664
-0.0346187
-0.0314106
-0.0282418
-0.0251117
-0.0220198
-0.0189658
-0.015949
-0.0129692
-0.0100258
-0.00711836
-0.00424646
-0.00140967
-0.0996528
-0.0956498
-0.0916957
-0.08779
-0.083932
-0.0801211
-0.0763569
-0.0726386
-0.0689658
-0.0653379
-0.0617543
-0.0582146
-0.0547181
-0.0512643
-0.0478528
-0.044483
-0.0411544
-0.0378664
-0.0346187
-0.0314106
-0.0282418
-0.0251117
-0.0220198
-0.0189658
-0.015949
-0.0129692
-0.0100258
-0.00711836
-0.00424646
-0.00140967
-0.0996528
-0.0956498
-0.0916957
-0.08779
-0.083932
-0.0801211
-0.0763569
-0.0726386
-0.0689658
-0.0653379
-0.0617543
-0.0582146
-0.0547181
-0.0512643
-0.0478528
-0.044483
-0.0411544
-0.0378664
-0.0346187
-0.0314106
-0.0282418
-0.0251117
-0.0220198
-0.0189658
-0.015949
-0.0129692
-0.0100258
-0.00711836
-0.00424646
-0.00140967
-0.0996528
-0.0956498
-0.0916957
-0.08779
-0.083932
-0.0801211
-0.0763569
-0.0726386
-0.0689658
-0.0653379
-0.0617543
-0.0582146
-0.0547181
-0.0512643
-0.0478528
-0.044483
-0.0411544
-0.0378664
-0.0346187
-0.0314106
-0.0282418
-0.0251117
-0.0220198
-0.0189658
-0.015949
-0.0129692
-0.0100258
-0.00711836
-0.00424646
-0.00140967
-0.0996528
-0.0956498
-0.0916957
-0.08779
-0.083932
-0.0801211
-0.0763569
-0.0726386
-0.0689658
-0.0653379
-0.0617543
-0.0582146
-0.0547181
-0.0512643
-0.0478528
-0.044483
-0.0411544
-0.0378664
-0.0346187
-0.0314106
-0.0282418
-0.0251117
-0.0220198
-0.0189658
-0.015949
-0.0129692
-0.0100258
-0.00711836
-0.00424646
-0.00140967
-0.0996528
-0.0956498
-0.0916957
-0.08779
-0.083932
-0.0801211
-0.0763569
-0.0726386
-0.0689658
-0.0653379
-0.0617543
-0.0582146
-0.0547181
-0.0512643
-0.0478528
-0.044483
-0.0411544
-0.0378664
-0.0346187
-0.0314106
-0.0282418
-0.0251117
-0.0220198
-0.0189658
-0.015949
-0.0129692
-0.0100258
-0.00711836
-0.00424646
-0.00140967
-0.0996528
-0.0956498
-0.0916957
-0.08779
-0.083932
-0.0801211
-0.0763569
-0.0726386
-0.0689658
-0.0653379
-0.0617543
-0.0582146
-0.0547181
-0.0512643
-0.0478528
-0.044483
-0.0411544
-0.0378664
-0.0346187
-0.0314106
-0.0282418
-0.0251117
-0.0220198
-0.0189658
-0.015949
-0.0129692
-0.0100258
-0.00711836
-0.00424646
-0.00140967
-0.0996528
-0.0956498
-0.0916957
-0.08779
-0.083932
-0.0801211
-0.0763569
-0.0726386
-0.0689658
-0.0653379
-0.0617543
-0.0582146
-0.0547181
-0.0512643
-0.0478528
-0.044483
-0.0411544
-0.0378664
-0.0346187
-0.0314106
-0.0282418
-0.0251117
-0.0220198
-0.0189658
-0.015949
-0.0129692
-0.0100258
-0.00711836
-0.00424646
-0.00140967
-0.0996528
-0.0956498
-0.0916957
-0.08779
-0.083932
-0.0801211
-0.0763569
-0.0726386
-0.0689658
-0.0653379
-0.0617543
-0.0582146
-0.0547181
-0.0512643
-0.0478528
-0.044483
-0.0411544
-0.0378664
-0.0346187
-0.0314106
-0.0282418
-0.0251117
-0.0220198
-0.0189658
-0.015949
-0.0129692
-0.0100258
-0.00711836
-0.00424646
-0.00140967
-0.0996528
-0.0956498
-0.0916957
-0.08779
-0.083932
-0.0801211
-0.0763569
-0.0726386
-0.0689658
-0.0653379
-0.0617543
-0.0582146
-0.0547181
-0.0512643
-0.0478528
-0.044483
-0.0411544
-0.0378664
-0.0346187
-0.0314106
-0.0282418
-0.0251117
-0.0220198
-0.0189658
-0.015949
-0.0129692
-0.0100258
-0.00711836
-0.00424646
-0.00140967
-0.0996528
-0.0956498
-0.0916957
-0.08779
-0.083932
-0.0801211
-0.0763569
-0.0726386
-0.0689658
-0.0653379
-0.0617543
-0.0582146
-0.0547181
-0.0512643
-0.0478528
-0.044483
-0.0411544
-0.0378664
-0.0346187
-0.0314106
-0.0282418
-0.0251117
-0.0220198
-0.0189658
-0.015949
-0.0129692
-0.0100258
-0.00711836
-0.00424646
-0.00140967
-0.0996528
-0.0956498
-0.0916957
-0.08779
-0.083932
-0.0801211
-0.0763569
-0.0726386
-0.0689658
-0.0653379
-0.0617543
-0.0582146
-0.0547181
-0.0512643
-0.0478528
-0.044483
-0.0411544
-0.0378664
-0.0346187
-0.0314106
-0.0282418
-0.0251117
-0.0220198
-0.0189658
-0.015949
-0.0129692
-0.0100258
-0.00711836
-0.00424646
-0.00140967
-0.0996528
-0.0956498
-0.0916957
-0.08779
-0.083932
-0.0801211
-0.0763569
-0.0726386
-0.0689658
-0.0653379
-0.0617543
-0.0582146
-0.0547181
-0.0512643
-0.0478528
-0.044483
-0.0411544
-0.0378664
-0.0346187
-0.0314106
-0.0282418
-0.0251117
-0.0220198
-0.0189658
-0.015949
-0.0129692
-0.0100258
-0.00711836
-0.00424646
-0.00140967
-0.0996528
-0.0956498
-0.0916957
-0.08779
-0.083932
-0.0801211
-0.0763569
-0.0726386
-0.0689658
-0.0653379
-0.0617543
-0.0582146
-0.0547181
-0.0512643
-0.0478528
-0.044483
-0.0411544
-0.0378664
-0.0346187
-0.0314106
-0.0282418
-0.0251117
-0.0220198
-0.0189658
-0.015949
-0.0129692
-0.0100258
-0.00711836
-0.00424646
-0.00140967
-0.0996528
-0.0956498
-0.0916957
-0.08779
-0.083932
-0.0801211
-0.0763569
-0.0726386
-0.0689658
-0.0653379
-0.0617543
-0.0582146
-0.0547181
-0.0512643
-0.0478528
-0.044483
-0.0411544
-0.0378664
-0.0346187
-0.0314106
-0.0282418
-0.0251117
-0.0220198
-0.0189658
-0.015949
-0.0129692
-0.0100258
-0.00711836
-0.00424646
-0.00140967
-0.0996528
-0.0956498
-0.0916957
-0.08779
-0.083932
-0.0801211
-0.0763569
-0.0726386
-0.0689658
-0.0653379
-0.0617543
-0.0582146
-0.0547181
-0.0512643
-0.0478528
-0.044483
-0.0411544
-0.0378664
-0.0346187
-0.0314106
-0.0282418
-0.0251117
-0.0220198
-0.0189658
-0.015949
-0.0129692
-0.0100258
-0.00711836
-0.00424646
-0.00140967
-0.0996528
-0.0956498
-0.0916957
-0.08779
-0.083932
-0.0801211
-0.0763569
-0.0726386
-0.0689658
-0.0653379
-0.0617543
-0.0582146
-0.0547181
-0.0512643
-0.0478528
-0.044483
-0.0411544
-0.0378664
-0.0346187
-0.0314106
-0.0282418
-0.0251117
-0.0220198
-0.0189658
-0.015949
-0.0129692
-0.0100258
-0.00711836
-0.00424646
-0.00140967
-0.0996528
-0.0956498
-0.0916957
-0.08779
-0.083932
-0.0801211
-0.0763569
-0.0726386
-0.0689658
-0.0653379
-0.0617543
-0.0582146
-0.0547181
-0.0512643
-0.0478528
-0.044483
-0.0411544
-0.0378664
-0.0346187
-0.0314106
-0.0282418
-0.0251117
-0.0220198
-0.0189658
-0.015949
-0.0129692
-0.0100258
-0.00711836
-0.00424646
-0.00140967
-0.0996528
-0.0956498
-0.0916957
-0.08779
-0.083932
-0.0801211
-0.0763569
-0.0726386
-0.0689658
-0.0653379
-0.0617543
-0.0582146
-0.0547181
-0.0512643
-0.0478528
-0.044483
-0.0411544
-0.0378664
-0.0346187
-0.0314106
-0.0282418
-0.0251117
-0.0220198
-0.0189658
-0.015949
-0.0129692
-0.0100258
-0.00711836
-0.00424646
-0.00140967
-0.0996528
-0.0956498
-0.0916957
-0.08779
-0.083932
-0.0801211
-0.0763569
-0.0726386
-0.0689658
-0.0653379
-0.0617543
-0.0582146
-0.0547181
-0.0512643
-0.0478528
-0.044483
-0.0411544
-0.0378664
-0.0346187
-0.0314106
-0.0282418
-0.0251117
-0.0220198
-0.0189658
-0.015949
-0.0129692
-0.0100258
-0.00711836
-0.00424646
-0.00140967
-0.0996528
-0.0956498
-0.0916957
-0.08779
-0.083932
-0.0801211
-0.0763569
-0.0726386
-0.0689658
-0.0653379
-0.0617543
-0.0582146
-0.0547181
-0.0512643
-0.0478528
-0.044483
-0.0411544
-0.0378664
-0.0346187
-0.0314106
-0.0282418
-0.0251117
-0.0220198
-0.0189658
-0.015949
-0.0129692
-0.0100258
-0.00711836
-0.00424646
-0.00140967
-0.0996528
-0.0956498
-0.0916957
-0.08779
-0.083932
-0.0801211
-0.0763569
-0.0726386
-0.0689658
-0.0653379
-0.0617543
-0.0582146
-0.0547181
-0.0512643
-0.0478528
-0.044483
-0.0411544
-0.0378664
-0.0346187
-0.0314106
-0.0282418
-0.0251117
-0.0220198
-0.0189658
-0.015949
-0.0129692
-0.0100258
-0.00711836
-0.00424646
-0.00140967
-0.0996528
-0.0956498
-0.0916957
-0.08779
-0.083932
-0.0801211
-0.0763569
-0.0726386
-0.0689658
-0.0653379
-0.0617543
-0.0582146
-0.0547181
-0.0512643
-0.0478528
-0.044483
-0.0411544
-0.0378664
-0.0346187
-0.0314106
-0.0282418
-0.0251117
-0.0220198
-0.0189658
-0.015949
-0.0129692
-0.0100258
-0.00711836
-0.00424646
-0.00140967
-0.0996528
-0.0956498
-0.0916957
-0.08779
-0.083932
-0.0801211
-0.0763569
-0.0726386
-0.0689658
-0.0653379
-0.0617543
-0.0582146
-0.0547181
-0.0512643
-0.0478528
-0.044483
-0.0411544
-0.0378664
-0.0346187
-0.0314106
-0.0282418
-0.0251117
-0.0220198
-0.0189658
-0.015949
-0.0129692
-0.0100258
-0.00711836
-0.00424646
-0.00140967
-0.0996528
-0.0956498
-0.0916957
-0.08779
-0.083932
-0.0801211
-0.0763569
-0.0726386
-0.0689658
-0.0653379
-0.0617543
-0.0582146
-0.0547181
-0.0512643
-0.0478528
-0.044483
-0.0411544
-0.0378664
-0.0346187
-0.0314106
-0.0282418
-0.0251117
-0.0220198
-0.0189658
-0.015949
-0.0129692
-0.0100258
-0.00711836
-0.00424646
-0.00140967
-0.0996528
-0.0956498
-0.0916957
-0.08779
-0.083932
-0.0801211
-0.0763569
-0.0726386
-0.0689658
-0.0653379
-0.0617543
-0.0582146
-0.0547181
-0.0512643
-0.0478528
-0.044483
-0.0411544
-0.0378664
-0.0346187
-0.0314106
-0.0282418
-0.0251117
-0.0220198
-0.0189658
-0.015949
-0.0129692
-0.0100258
-0.00711836
-0.00424646
-0.00140967
-0.0996528
-0.0956498
-0.0916957
-0.08779
-0.083932
-0.0801211
-0.0763569
-0.0726386
-0.0689658
-0.0653379
-0.0617543
-0.0582146
-0.0547181
-0.0512643
-0.0478528
-0.044483
-0.0411544
-0.0378664
-0.0346187
-0.0314106
-0.0282418
-0.0251117
-0.0220198
-0.0189658
-0.015949
-0.0129692
-0.0100258
-0.00711836
-0.00424646
-0.00140967
-0.0996528
-0.0956498
-0.0916957
-0.08779
-0.083932
-0.0801211
-0.0763569
-0.0726386
-0.0689658
-0.0653379
-0.0617543
-0.0582146
-0.0547181
-0.0512643
-0.0478528
-0.044483
-0.0411544
-0.0378664
-0.0346187
-0.0314106
-0.0282418
-0.0251117
-0.0220198
-0.0189658
-0.015949
-0.0129692
-0.0100258
-0.00711836
-0.00424646
-0.00140967
-0.0996528
-0.0956498
-0.0916957
-0.08779
-0.083932
-0.0801211
-0.0763569
-0.0726386
-0.0689658
-0.0653379
-0.0617543
-0.0582146
-0.0547181
-0.0512643
-0.0478528
-0.044483
-0.0411544
-0.0378664
-0.0346187
-0.0314106
-0.0282418
-0.0251117
-0.0220198
-0.0189658
-0.015949
-0.0129692
-0.0100258
-0.00711836
-0.00424646
-0.00140967
-0.0996528
-0.0956498
-0.0916957
-0.08779
-0.083932
-0.0801211
-0.0763569
-0.0726386
-0.0689658
-0.0653379
-0.0617543
-0.0582146
-0.0547181
-0.0512643
-0.0478528
-0.044483
-0.0411544
-0.0378664
-0.0346187
-0.0314106
-0.0282418
-0.0251117
-0.0220198
-0.0189658
-0.015949
-0.0129692
-0.0100258
-0.00711836
-0.00424646
-0.00140967
-0.0996528
-0.0956498
-0.0916957
-0.08779
-0.083932
-0.0801211
-0.0763569
-0.0726386
-0.0689658
-0.0653379
-0.0617543
-0.0582146
-0.0547181
-0.0512643
-0.0478528
-0.044483
-0.0411544
-0.0378664
-0.0346187
-0.0314106
-0.0282418
-0.0251117
-0.0220198
-0.0189658
-0.015949
-0.0129692
-0.0100258
-0.00711836
-0.00424646
-0.00140967
-0.0996528
-0.0956498
-0.0916957
-0.08779
-0.083932
-0.0801211
-0.0763569
-0.0726386
-0.0689658
-0.0653379
-0.0617543
-0.0582146
-0.0547181
-0.0512643
-0.0478528
-0.044483
-0.0411544
-0.0378664
-0.0346187
-0.0314106
-0.0282418
-0.0251117
-0.0220198
-0.0189658
-0.015949
-0.0129692
-0.0100258
-0.00711836
-0.00424646
-0.00140967
-0.0996528
-0.0956498
-0.0916957
-0.08779
-0.083932
-0.0801211
-0.0763569
-0.0726386
-0.0689658
-0.0653379
-0.0617543
-0.0582146
-0.0547181
-0.0512643
-0.0478528
-0.044483
-0.0411544
-0.0378664
-0.0346187
-0.0314106
-0.0282418
-0.0251117
-0.0220198
-0.0189658
-0.015949
-0.0129692
-0.0100258
-0.00711836
-0.00424646
-0.00140967
-0.0996528
-0.0956498
-0.0916957
-0.08779
-0.083932
-0.0801211
-0.0763569
-0.0726386
-0.0689658
-0.0653379
-0.0617543
-0.0582146
-0.0547181
-0.0512643
-0.0478528
-0.044483
-0.0411544
-0.0378664
-0.0346187
-0.0314106
-0.0282418
-0.0251117
-0.0220198
-0.0189658
-0.015949
-0.0129692
-0.0100258
-0.00711836
-0.00424646
-0.00140967
-0.0996528
-0.0956498
-0.0916957
-0.08779
-0.083932
-0.0801211
-0.0763569
-0.0726386
-0.0689658
-0.0653379
-0.0617543
-0.0582146
-0.0547181
-0.0512643
-0.0478528
-0.044483
-0.0411544
-0.0378664
-0.0346187
-0.0314106
-0.0282418
-0.0251117
-0.0220198
-0.0189658
-0.015949
-0.0129692
-0.0100258
-0.00711836
-0.00424646
-0.00140967
-0.0996528
-0.0956498
-0.0916957
-0.08779
-0.083932
-0.0801211
-0.0763569
-0.0726386
-0.0689658
-0.0653379
-0.0617543
-0.0582146
-0.0547181
-0.0512643
-0.0478528
-0.044483
-0.0411544
-0.0378664
-0.0346187
-0.0314106
-0.0282418
-0.0251117
-0.0220198
-0.0189658
-0.015949
-0.0129692
-0.0100258
-0.00711836
-0.00424646
-0.00140967
-0.0996528
-0.0956498
-0.0916957
-0.08779
-0.083932
-0.0801211
-0.0763569
-0.0726386
-0.0689658
-0.0653379
-0.0617543
-0.0582146
-0.0547181
-0.0512643
-0.0478528
-0.044483
-0.0411544
-0.0378664
-0.0346187
-0.0314106
-0.0282418
-0.0251117
-0.0220198
-0.0189658
-0.015949
-0.0129692
-0.0100258
-0.00711836
-0.00424646
-0.00140967
-0.0996528
-0.0956498
-0.0916957
-0.08779
-0.083932
-0.0801211
-0.0763569
-0.0726386
-0.0689658
-0.0653379
-0.0617543
-0.0582146
-0.0547181
-0.0512643
-0.0478528
-0.044483
-0.0411544
-0.0378664
-0.0346187
-0.0314106
-0.0282418
-0.0251117
-0.0220198
-0.0189658
-0.015949
-0.0129692
-0.0100258
-0.00711836
-0.00424646
-0.00140967
-0.0996528
-0.0956498
-0.0916957
-0.08779
-0.083932
-0.0801211
-0.0763569
-0.0726386
-0.0689658
-0.0653379
-0.0617543
-0.0582146
-0.0547181
-0.0512643
-0.0478528
-0.044483
-0.0411544
-0.0378664
-0.0346187
-0.0314106
-0.0282418
-0.0251117
-0.0220198
-0.0189658
-0.015949
-0.0129692
-0.0100258
-0.00711836
-0.00424646
-0.00140967
-0.0996528
-0.0956498
-0.0916957
-0.08779
-0.083932
-0.0801211
-0.0763569
-0.0726386
-0.0689658
-0.0653379
-0.0617543
-0.0582146
-0.0547181
-0.0512643
-0.0478528
-0.044483
-0.0411544
-0.0378664
-0.0346187
-0.0314106
-0.0282418
-0.0251117
-0.0220198
-0.0189658
-0.015949
-0.0129692
-0.0100258
-0.00711836
-0.00424646
-0.00140967
-0.0996528
-0.0956498
-0.0916957
-0.08779
-0.083932
-0.0801211
-0.0763569
-0.0726386
-0.0689658
-0.0653379
-0.0617543
-0.0582146
-0.0547181
-0.0512643
-0.0478528
-0.044483
-0.0411544
-0.0378664
-0.0346187
-0.0314106
-0.0282418
-0.0251117
-0.0220198
-0.0189658
-0.015949
-0.0129692
-0.0100258
-0.00711836
-0.00424646
-0.00140967
-0.0996528
-0.0956498
-0.0916957
-0.08779
-0.083932
-0.0801211
-0.0763569
-0.0726386
-0.0689658
-0.0653379
-0.0617543
-0.0582146
-0.0547181
-0.0512643
-0.0478528
-0.044483
-0.0411544
-0.0378664
-0.0346187
-0.0314106
-0.0282418
-0.0251117
-0.0220198
-0.0189658
-0.015949
-0.0129692
-0.0100258
-0.00711836
-0.00424646
-0.00140967
-0.0996528
-0.0956498
-0.0916957
-0.08779
-0.083932
-0.0801211
-0.0763569
-0.0726386
-0.0689658
-0.0653379
-0.0617543
-0.0582146
-0.0547181
-0.0512643
-0.0478528
-0.044483
-0.0411544
-0.0378664
-0.0346187
-0.0314106
-0.0282418
-0.0251117
-0.0220198
-0.0189658
-0.015949
-0.0129692
-0.0100258
-0.00711836
-0.00424646
-0.00140967
-0.0996528
-0.0956498
-0.0916957
-0.08779
-0.083932
-0.0801211
-0.0763569
-0.0726386
-0.0689658
-0.0653379
-0.0617543
-0.0582146
-0.0547181
-0.0512643
-0.0478528
-0.044483
-0.0411544
-0.0378664
-0.0346187
-0.0314106
-0.0282418
-0.0251117
-0.0220198
-0.0189658
-0.015949
-0.0129692
-0.0100258
-0.00711836
-0.00424646
-0.00140967
-0.0996528
-0.0956498
-0.0916957
-0.08779
-0.083932
-0.0801211
-0.0763569
-0.0726386
-0.0689658
-0.0653379
-0.0617543
-0.0582146
-0.0547181
-0.0512643
-0.0478528
-0.044483
-0.0411544
-0.0378664
-0.0346187
-0.0314106
-0.0282418
-0.0251117
-0.0220198
-0.0189658
-0.015949
-0.0129692
-0.0100258
-0.00711836
-0.00424646
-0.00140967
-0.0996528
-0.0956498
-0.0916957
-0.08779
-0.083932
-0.0801211
-0.0763569
-0.0726386
-0.0689658
-0.0653379
-0.0617543
-0.0582146
-0.0547181
-0.0512643
-0.0478528
-0.044483
-0.0411544
-0.0378664
-0.0346187
-0.0314106
-0.0282418
-0.0251117
-0.0220198
-0.0189658
-0.015949
-0.0129692
-0.0100258
-0.00711836
-0.00424646
-0.00140967
-0.0996528
-0.0956498
-0.0916957
-0.08779
-0.083932
-0.0801211
-0.0763569
-0.0726386
-0.0689658
-0.0653379
-0.0617543
-0.0582146
-0.0547181
-0.0512643
-0.0478528
-0.044483
-0.0411544
-0.0378664
-0.0346187
-0.0314106
-0.0282418
-0.0251117
-0.0220198
-0.0189658
-0.015949
-0.0129692
-0.0100258
-0.00711836
-0.00424646
-0.00140967
-0.0996528
-0.0956498
-0.0916957
-0.08779
-0.083932
-0.0801211
-0.0763569
-0.0726386
-0.0689658
-0.0653379
-0.0617543
-0.0582146
-0.0547181
-0.0512643
-0.0478528
-0.044483
-0.0411544
-0.0378664
-0.0346187
-0.0314106
-0.0282418
-0.0251117
-0.0220198
-0.0189658
-0.015949
-0.0129692
-0.0100258
-0.00711836
-0.00424646
-0.00140967
-0.0996528
-0.0956498
-0.0916957
-0.08779
-0.083932
-0.0801211
-0.0763569
-0.0726386
-0.0689658
-0.0653379
-0.0617543
-0.0582146
-0.0547181
-0.0512643
-0.0478528
-0.044483
-0.0411544
-0.0378664
-0.0346187
-0.0314106
-0.0282418
-0.0251117
-0.0220198
-0.0189658
-0.015949
-0.0129692
-0.0100258
-0.00711836
-0.00424646
-0.00140967
-0.0996528
-0.0956498
-0.0916957
-0.08779
-0.083932
-0.0801211
-0.0763569
-0.0726386
-0.0689658
-0.0653379
-0.0617543
-0.0582146
-0.0547181
-0.0512643
-0.0478528
-0.044483
-0.0411544
-0.0378664
-0.0346187
-0.0314106
-0.0282418
-0.0251117
-0.0220198
-0.0189658
-0.015949
-0.0129692
-0.0100258
-0.00711836
-0.00424646
-0.00140967
-0.0996528
-0.0956498
-0.0916957
-0.08779
-0.083932
-0.0801211
-0.0763569
-0.0726386
-0.0689658
-0.0653379
-0.0617543
-0.0582146
-0.0547181
-0.0512643
-0.0478528
-0.044483
-0.0411544
-0.0378664
-0.0346187
-0.0314106
-0.0282418
-0.0251117
-0.0220198
-0.0189658
-0.015949
-0.0129692
-0.0100258
-0.00711836
-0.00424646
-0.00140967
-0.0996528
-0.0956498
-0.0916957
-0.08779
-0.083932
-0.0801211
-0.0763569
-0.0726386
-0.0689658
-0.0653379
-0.0617543
-0.0582146
-0.0547181
-0.0512643
-0.0478528
-0.044483
-0.0411544
-0.0378664
-0.0346187
-0.0314106
-0.0282418
-0.0251117
-0.0220198
-0.0189658
-0.015949
-0.0129692
-0.0100258
-0.00711836
-0.00424646
-0.00140967
-0.0996528
-0.0956498
-0.0916957
-0.08779
-0.083932
-0.0801211
-0.0763569
-0.0726386
-0.0689658
-0.0653379
-0.0617543
-0.0582146
-0.0547181
-0.0512643
-0.0478528
-0.044483
-0.0411544
-0.0378664
-0.0346187
-0.0314106
-0.0282418
-0.0251117
-0.0220198
-0.0189658
-0.015949
-0.0129692
-0.0100258
-0.00711836
-0.00424646
-0.00140967
-0.0996528
-0.0956498
-0.0916957
-0.08779
-0.083932
-0.0801211
-0.0763569
-0.0726386
-0.0689658
-0.0653379
-0.0617543
-0.0582146
-0.0547181
-0.0512643
-0.0478528
-0.044483
-0.0411544
-0.0378664
-0.0346187
-0.0314106
-0.0282418
-0.0251117
-0.0220198
-0.0189658
-0.015949
-0.0129692
-0.0100258
-0.00711836
-0.00424646
-0.00140967
-0.0996528
-0.0956498
-0.0916957
-0.08779
-0.083932
-0.0801211
-0.0763569
-0.0726386
-0.0689658
-0.0653379
-0.0617543
-0.0582146
-0.0547181
-0.0512643
-0.0478528
-0.044483
-0.0411544
-0.0378664
-0.0346187
-0.0314106
-0.0282418
-0.0251117
-0.0220198
-0.0189658
-0.015949
-0.0129692
-0.0100258
-0.00711836
-0.00424646
-0.00140967
-0.0996528
-0.0956498
-0.0916957
-0.08779
-0.083932
-0.0801211
-0.0763569
-0.0726386
-0.0689658
-0.0653379
-0.0617543
-0.0582146
-0.0547181
-0.0512643
-0.0478528
-0.044483
-0.0411544
-0.0378664
-0.0346187
-0.0314106
-0.0282418
-0.0251117
-0.0220198
-0.0189658
-0.015949
-0.0129692
-0.0100258
-0.00711836
-0.00424646
-0.00140967
-0.0996528
-0.0956498
-0.0916957
-0.08779
-0.083932
-0.0801211
-0.0763569
-0.0726386
-0.0689658
-0.0653379
-0.0617543
-0.0582146
-0.0547181
-0.0512643
-0.0478528
-0.044483
-0.0411544
-0.0378664
-0.0346187
-0.0314106
-0.0282418
-0.0251117
-0.0220198
-0.0189658
-0.015949
-0.0129692
-0.0100258
-0.00711836
-0.00424646
-0.00140967
-0.0996528
-0.0956498
-0.0916957
-0.08779
-0.083932
-0.0801211
-0.0763569
-0.0726386
-0.0689658
-0.0653379
-0.0617543
-0.0582146
-0.0547181
-0.0512643
-0.0478528
-0.044483
-0.0411544
-0.0378664
-0.0346187
-0.0314106
-0.0282418
-0.0251117
-0.0220198
-0.0189658
-0.015949
-0.0129692
-0.0100258
-0.00711836
-0.00424646
-0.00140967
-0.0996528
-0.0956498
-0.0916957
-0.08779
-0.083932
-0.0801211
-0.0763569
-0.0726386
-0.0689658
-0.0653379
-0.0617543
-0.0582146
-0.0547181
-0.0512643
-0.0478528
-0.044483
-0.0411544
-0.0378664
-0.0346187
-0.0314106
-0.0282418
-0.0251117
-0.0220198
-0.0189658
-0.015949
-0.0129692
-0.0100258
-0.00711836
-0.00424646
-0.00140967
-0.0996528
-0.0956498
-0.0916957
-0.08779
-0.083932
-0.0801211
-0.0763569
-0.0726386
-0.0689658
-0.0653379
-0.0617543
-0.0582146
-0.0547181
-0.0512643
-0.0478528
-0.044483
-0.0411544
-0.0378664
-0.0346187
-0.0314106
-0.0282418
-0.0251117
-0.0220198
-0.0189658
-0.015949
-0.0129692
-0.0100258
-0.00711836
-0.00424646
-0.00140967
-0.0996528
-0.0956498
-0.0916957
-0.08779
-0.083932
-0.0801211
-0.0763569
-0.0726386
-0.0689658
-0.0653379
-0.0617543
-0.0582146
-0.0547181
-0.0512643
-0.0478528
-0.044483
-0.0411544
-0.0378664
-0.0346187
-0.0314106
-0.0282418
-0.0251117
-0.0220198
-0.0189658
-0.015949
-0.0129692
-0.0100258
-0.00711836
-0.00424646
-0.00140967
-0.0996528
-0.0956498
-0.0916957
-0.08779
-0.083932
-0.0801211
-0.0763569
-0.0726386
-0.0689658
-0.0653379
-0.0617543
-0.0582146
-0.0547181
-0.0512643
-0.0478528
-0.044483
-0.0411544
-0.0378664
-0.0346187
-0.0314106
-0.0282418
-0.0251117
-0.0220198
-0.0189658
-0.015949
-0.0129692
-0.0100258
-0.00711836
-0.00424646
-0.00140967
-0.0996528
-0.0956498
-0.0916957
-0.08779
-0.083932
-0.0801211
-0.0763569
-0.0726386
-0.0689658
-0.0653379
-0.0617543
-0.0582146
-0.0547181
-0.0512643
-0.0478528
-0.044483
-0.0411544
-0.0378664
-0.0346187
-0.0314106
-0.0282418
-0.0251117
-0.0220198
-0.0189658
-0.015949
-0.0129692
-0.0100258
-0.00711836
-0.00424646
-0.00140967
-0.0996528
-0.0956498
-0.0916957
-0.08779
-0.083932
-0.0801211
-0.0763569
-0.0726386
-0.0689658
-0.0653379
-0.0617543
-0.0582146
-0.0547181
-0.0512643
-0.0478528
-0.044483
-0.0411544
-0.0378664
-0.0346187
-0.0314106
-0.0282418
-0.0251117