/*--------------------------------*- C++ -*----------------------------------*\
| =========                 |                                                 |
| \\      /  F ield         | OpenFOAM: The Open Source CFD Toolbox           |
|  \\    /   O peration     | Version:  2506                                  |
|   \\  /    A nd           | Website:  www.openfoam.com                      |
|    \\/     M anipulation  |                                                 |
\*---------------------------------------------------------------------------*/
FoamFile
{
    version     2.0;
    format      ascii;
    arch        "LSB;label=32;scalar=64";
    class       volScalarField;
    location    "0";
    object      Cy;
}
// * * * * * * * * * * * * * * * * * * * * * * * * * * * * * * * * * * * * * //

dimensions      [0 1 0 0 0 0 0];

internalField   nonuniform List<scalar> 
40788
(
3.17389e-05
3.17389e-05
3.17389e-05
3.17389e-05
3.17389e-05
3.17389e-05
3.17389e-05
3.17389e-05
3.17389e-05
3.17389e-05
3.17389e-05
3.17389e-05
3.17389e-05
3.17389e-05
3.17389e-05
3.17389e-05
3.17389e-05
3.17389e-05
3.17389e-05
3.17389e-05
3.17389e-05
3.17389e-05
3.17389e-05
3.17389e-05
3.17389e-05
3.17389e-05
3.17389e-05
3.17389e-05
3.17389e-05
3.17389e-05
9.62964e-05
9.62964e-05
9.62964e-05
9.62964e-05
9.62964e-05
9.62964e-05
9.62964e-05
9.62964e-05
9.62964e-05
9.62964e-05
9.62964e-05
9.62964e-05
9.62964e-05
9.62964e-05
9.62964e-05
9.62964e-05
9.62964e-05
9.62964e-05
9.62964e-05
9.62964e-05
9.62964e-05
9.62964e-05
9.62964e-05
9.62964e-05
9.62964e-05
9.62964e-05
9.62964e-05
9.62964e-05
9.62964e-05
9.62964e-05
0.00016305
0.00016305
0.00016305
0.00016305
0.00016305
0.00016305
0.00016305
0.00016305
0.00016305
0.00016305
0.00016305
0.00016305
0.00016305
0.00016305
0.00016305
0.00016305
0.00016305
0.00016305
0.00016305
0.00016305
0.00016305
0.00016305
0.00016305
0.00016305
0.00016305
0.00016305
0.00016305
0.00016305
0.00016305
0.00016305
0.000232074
0.000232074
0.000232074
0.000232074
0.000232074
0.000232074
0.000232074
0.000232074
0.000232074
0.000232074
0.000232074
0.000232074
0.000232074
0.000232074
0.000232074
0.000232074
0.000232074
0.000232074
0.000232074
0.000232074
0.000232074
0.000232074
0.000232074
0.000232074
0.000232074
0.000232074
0.000232074
0.000232074
0.000232074
0.000232074
0.000303446
0.000303446
0.000303446
0.000303446
0.000303446
0.000303446
0.000303446
0.000303446
0.000303446
0.000303446
0.000303446
0.000303446
0.000303446
0.000303446
0.000303446
0.000303446
0.000303446
0.000303446
0.000303446
0.000303446
0.000303446
0.000303446
0.000303446
0.000303446
0.000303446
0.000303446
0.000303446
0.000303446
0.000303446
0.000303446
0.000377246
0.000377246
0.000377246
0.000377246
0.000377246
0.000377246
0.000377246
0.000377246
0.000377246
0.000377246
0.000377246
0.000377246
0.000377246
0.000377246
0.000377246
0.000377246
0.000377246
0.000377246
0.000377246
0.000377246
0.000377246
0.000377246
0.000377246
0.000377246
0.000377246
0.000377246
0.000377246
0.000377246
0.000377246
0.000377246
0.000453557
0.000453557
0.000453557
0.000453557
0.000453557
0.000453557
0.000453557
0.000453557
0.000453557
0.000453557
0.000453557
0.000453557
0.000453557
0.000453557
0.000453557
0.000453557
0.000453557
0.000453557
0.000453557
0.000453557
0.000453557
0.000453557
0.000453557
0.000453557
0.000453557
0.000453557
0.000453557
0.000453557
0.000453557
0.000453557
0.000532463
0.000532463
0.000532463
0.000532463
0.000532463
0.000532463
0.000532463
0.000532463
0.000532463
0.000532463
0.000532463
0.000532463
0.000532463
0.000532463
0.000532463
0.000532463
0.000532463
0.000532463
0.000532463
0.000532463
0.000532463
0.000532463
0.000532463
0.000532463
0.000532463
0.000532463
0.000532463
0.000532463
0.000532463
0.000532463
0.000614053
0.000614053
0.000614053
0.000614053
0.000614053
0.000614053
0.000614053
0.000614053
0.000614053
0.000614053
0.000614053
0.000614053
0.000614053
0.000614053
0.000614053
0.000614053
0.000614053
0.000614053
0.000614053
0.000614053
0.000614053
0.000614053
0.000614053
0.000614053
0.000614053
0.000614053
0.000614053
0.000614053
0.000614053
0.000614053
0.000698419
0.000698419
0.000698419
0.000698419
0.000698419
0.000698419
0.000698419
0.000698419
0.000698419
0.000698419
0.000698419
0.000698419
0.000698419
0.000698419
0.000698419
0.000698419
0.000698419
0.000698419
0.000698419
0.000698419
0.000698419
0.000698419
0.000698419
0.000698419
0.000698419
0.000698419
0.000698419
0.000698419
0.000698419
0.000698419
0.000785654
0.000785654
0.000785654
0.000785654
0.000785654
0.000785654
0.000785654
0.000785654
0.000785654
0.000785654
0.000785654
0.000785654
0.000785654
0.000785654
0.000785654
0.000785654
0.000785654
0.000785654
0.000785654
0.000785654
0.000785654
0.000785654
0.000785654
0.000785654
0.000785654
0.000785654
0.000785654
0.000785654
0.000785654
0.000785654
0.000875857
0.000875857
0.000875857
0.000875857
0.000875857
0.000875857
0.000875857
0.000875857
0.000875857
0.000875857
0.000875857
0.000875857
0.000875857
0.000875857
0.000875857
0.000875857
0.000875857
0.000875857
0.000875857
0.000875857
0.000875857
0.000875857
0.000875857
0.000875857
0.000875857
0.000875857
0.000875857
0.000875857
0.000875857
0.000875857
0.000969129
0.000969129
0.000969129
0.000969129
0.000969129
0.000969129
0.000969129
0.000969129
0.000969129
0.000969129
0.000969129
0.000969129
0.000969129
0.000969129
0.000969129
0.000969129
0.000969129
0.000969129
0.000969129
0.000969129
0.000969129
0.000969129
0.000969129
0.000969129
0.000969129
0.000969129
0.000969129
0.000969129
0.000969129
0.000969129
0.00106557
0.00106557
0.00106557
0.00106557
0.00106557
0.00106557
0.00106557
0.00106557
0.00106557
0.00106557
0.00106557
0.00106557
0.00106557
0.00106557
0.00106557
0.00106557
0.00106557
0.00106557
0.00106557
0.00106557
0.00106557
0.00106557
0.00106557
0.00106557
0.00106557
0.00106557
0.00106557
0.00106557
0.00106557
0.00106557
0.0011653
0.0011653
0.0011653
0.0011653
0.0011653
0.0011653
0.0011653
0.0011653
0.0011653
0.0011653
0.0011653
0.0011653
0.0011653
0.0011653
0.0011653
0.0011653
0.0011653
0.0011653
0.0011653
0.0011653
0.0011653
0.0011653
0.0011653
0.0011653
0.0011653
0.0011653
0.0011653
0.0011653
0.0011653
0.0011653
0.00126841
0.00126841
0.00126841
0.00126841
0.00126841
0.00126841
0.00126841
0.00126841
0.00126841
0.00126841
0.00126841
0.00126841
0.00126841
0.00126841
0.00126841
0.00126841
0.00126841
0.00126841
0.00126841
0.00126841
0.00126841
0.00126841
0.00126841
0.00126841
0.00126841
0.00126841
0.00126841
0.00126841
0.00126841
0.00126841
0.00137504
0.00137504
0.00137504
0.00137504
0.00137504
0.00137504
0.00137504
0.00137504
0.00137504
0.00137504
0.00137504
0.00137504
0.00137504
0.00137504
0.00137504
0.00137504
0.00137504
0.00137504
0.00137504
0.00137504
0.00137504
0.00137504
0.00137504
0.00137504
0.00137504
0.00137504
0.00137504
0.00137504
0.00137504
0.00137504
0.00148529
0.00148529
0.00148529
0.00148529
0.00148529
0.00148529
0.00148529
0.00148529
0.00148529
0.00148529
0.00148529
0.00148529
0.00148529
0.00148529
0.00148529
0.00148529
0.00148529
0.00148529
0.00148529
0.00148529
0.00148529
0.00148529
0.00148529
0.00148529
0.00148529
0.00148529
0.00148529
0.00148529
0.00148529
0.00148529
0.00159929
0.00159929
0.00159929
0.00159929
0.00159929
0.00159929
0.00159929
0.00159929
0.00159929
0.00159929
0.00159929
0.00159929
0.00159929
0.00159929
0.00159929
0.00159929
0.00159929
0.00159929
0.00159929
0.00159929
0.00159929
0.00159929
0.00159929
0.00159929
0.00159929
0.00159929
0.00159929
0.00159929
0.00159929
0.00159929
0.00171717
0.00171717
0.00171717
0.00171717
0.00171717
0.00171717
0.00171717
0.00171717
0.00171717
0.00171717
0.00171717
0.00171717
0.00171717
0.00171717
0.00171717
0.00171717
0.00171717
0.00171717
0.00171717
0.00171717
0.00171717
0.00171717
0.00171717
0.00171717
0.00171717
0.00171717
0.00171717
0.00171717
0.00171717
0.00171717
0.00183906
0.00183906
0.00183906
0.00183906
0.00183906
0.00183906
0.00183906
0.00183906
0.00183906
0.00183906
0.00183906
0.00183906
0.00183906
0.00183906
0.00183906
0.00183906
0.00183906
0.00183906
0.00183906
0.00183906
0.00183906
0.00183906
0.00183906
0.00183906
0.00183906
0.00183906
0.00183906
0.00183906
0.00183906
0.00183906
0.0019651
0.0019651
0.0019651
0.0019651
0.0019651
0.0019651
0.0019651
0.0019651
0.0019651
0.0019651
0.0019651
0.0019651
0.0019651
0.0019651
0.0019651
0.0019651
0.0019651
0.0019651
0.0019651
0.0019651
0.0019651
0.0019651
0.0019651
0.0019651
0.0019651
0.0019651
0.0019651
0.0019651
0.0019651
0.0019651
0.00209542
0.00209542
0.00209542
0.00209542
0.00209542
0.00209542
0.00209542
0.00209542
0.00209542
0.00209542
0.00209542
0.00209542
0.00209542
0.00209542
0.00209542
0.00209542
0.00209542
0.00209542
0.00209542
0.00209542
0.00209542
0.00209542
0.00209542
0.00209542
0.00209542
0.00209542
0.00209542
0.00209542
0.00209542
0.00209542
0.00223018
0.00223018
0.00223018
0.00223018
0.00223018
0.00223018
0.00223018
0.00223018
0.00223018
0.00223018
0.00223018
0.00223018
0.00223018
0.00223018
0.00223018
0.00223018
0.00223018
0.00223018
0.00223018
0.00223018
0.00223018
0.00223018
0.00223018
0.00223018
0.00223018
0.00223018
0.00223018
0.00223018
0.00223018
0.00223018
0.00236952
0.00236952
0.00236952
0.00236952
0.00236952
0.00236952
0.00236952
0.00236952
0.00236952
0.00236952
0.00236952
0.00236952
0.00236952
0.00236952
0.00236952
0.00236952
0.00236952
0.00236952
0.00236952
0.00236952
0.00236952
0.00236952
0.00236952
0.00236952
0.00236952
0.00236952
0.00236952
0.00236952
0.00236952
0.00236952
0.0025136
0.0025136
0.0025136
0.0025136
0.0025136
0.0025136
0.0025136
0.0025136
0.0025136
0.0025136
0.0025136
0.0025136
0.0025136
0.0025136
0.0025136
0.0025136
0.0025136
0.0025136
0.0025136
0.0025136
0.0025136
0.0025136
0.0025136
0.0025136
0.0025136
0.0025136
0.0025136
0.0025136
0.0025136
0.0025136
0.00266258
0.00266258
0.00266258
0.00266258
0.00266258
0.00266258
0.00266258
0.00266258
0.00266258
0.00266258
0.00266258
0.00266258
0.00266258
0.00266258
0.00266258
0.00266258
0.00266258
0.00266258
0.00266258
0.00266258
0.00266258
0.00266258
0.00266258
0.00266258
0.00266258
0.00266258
0.00266258
0.00266258
0.00266258
0.00266258
0.00281663
0.00281663
0.00281663
0.00281663
0.00281663
0.00281663
0.00281663
0.00281663
0.00281663
0.00281663
0.00281663
0.00281663
0.00281663
0.00281663
0.00281663
0.00281663
0.00281663
0.00281663
0.00281663
0.00281663
0.00281663
0.00281663
0.00281663
0.00281663
0.00281663
0.00281663
0.00281663
0.00281663
0.00281663
0.00281663
0.00297592
0.00297592
0.00297592
0.00297592
0.00297592
0.00297592
0.00297592
0.00297592
0.00297592
0.00297592
0.00297592
0.00297592
0.00297592
0.00297592
0.00297592
0.00297592
0.00297592
0.00297592
0.00297592
0.00297592
0.00297592
0.00297592
0.00297592
0.00297592
0.00297592
0.00297592
0.00297592
0.00297592
0.00297592
0.00297592
0.00314063
0.00314063
0.00314063
0.00314063
0.00314063
0.00314063
0.00314063
0.00314063
0.00314063
0.00314063
0.00314063
0.00314063
0.00314063
0.00314063
0.00314063
0.00314063
0.00314063
0.00314063
0.00314063
0.00314063
0.00314063
0.00314063
0.00314063
0.00314063
0.00314063
0.00314063
0.00314063
0.00314063
0.00314063
0.00314063
0.00331094
0.00331094
0.00331094
0.00331094
0.00331094
0.00331094
0.00331094
0.00331094
0.00331094
0.00331094
0.00331094
0.00331094
0.00331094
0.00331094
0.00331094
0.00331094
0.00331094
0.00331094
0.00331094
0.00331094
0.00331094
0.00331094
0.00331094
0.00331094
0.00331094
0.00331094
0.00331094
0.00331094
0.00331094
0.00331094
0.00348704
0.00348704
0.00348704
0.00348704
0.00348704
0.00348704
0.00348704
0.00348704
0.00348704
0.00348704
0.00348704
0.00348704
0.00348704
0.00348704
0.00348704
0.00348704
0.00348704
0.00348704
0.00348704
0.00348704
0.00348704
0.00348704
0.00348704
0.00348704
0.00348704
0.00348704
0.00348704
0.00348704
0.00348704
0.00348704
0.00366913
0.00366913
0.00366913
0.00366913
0.00366913
0.00366913
0.00366913
0.00366913
0.00366913
0.00366913
0.00366913
0.00366913
0.00366913
0.00366913
0.00366913
0.00366913
0.00366913
0.00366913
0.00366913
0.00366913
0.00366913
0.00366913
0.00366913
0.00366913
0.00366913
0.00366913
0.00366913
0.00366913
0.00366913
0.00366913
0.00385742
0.00385742
0.00385742
0.00385742
0.00385742
0.00385742
0.00385742
0.00385742
0.00385742
0.00385742
0.00385742
0.00385742
0.00385742
0.00385742
0.00385742
0.00385742
0.00385742
0.00385742
0.00385742
0.00385742
0.00385742
0.00385742
0.00385742
0.00385742
0.00385742
0.00385742
0.00385742
0.00385742
0.00385742
0.00385742
0.00405212
0.00405212
0.00405212
0.00405212
0.00405212
0.00405212
0.00405212
0.00405212
0.00405212
0.00405212
0.00405212
0.00405212
0.00405212
0.00405212
0.00405212
0.00405212
0.00405212
0.00405212
0.00405212
0.00405212
0.00405212
0.00405212
0.00405212
0.00405212
0.00405212
0.00405212
0.00405212
0.00405212
0.00405212
0.00405212
0.00425343
0.00425343
0.00425343
0.00425343
0.00425343
0.00425343
0.00425343
0.00425343
0.00425343
0.00425343
0.00425343
0.00425343
0.00425343
0.00425343
0.00425343
0.00425343
0.00425343
0.00425343
0.00425343
0.00425343
0.00425343
0.00425343
0.00425343
0.00425343
0.00425343
0.00425343
0.00425343
0.00425343
0.00425343
0.00425343
0.0044616
0.0044616
0.0044616
0.0044616
0.0044616
0.0044616
0.0044616
0.0044616
0.0044616
0.0044616
0.0044616
0.0044616
0.0044616
0.0044616
0.0044616
0.0044616
0.0044616
0.0044616
0.0044616
0.0044616
0.0044616
0.0044616
0.0044616
0.0044616
0.0044616
0.0044616
0.0044616
0.0044616
0.0044616
0.0044616
0.00467684
0.00467684
0.00467684
0.00467684
0.00467684
0.00467684
0.00467684
0.00467684
0.00467684
0.00467684
0.00467684
0.00467684
0.00467684
0.00467684
0.00467684
0.00467684
0.00467684
0.00467684
0.00467684
0.00467684
0.00467684
0.00467684
0.00467684
0.00467684
0.00467684
0.00467684
0.00467684
0.00467684
0.00467684
0.00467684
0.00489941
0.00489941
0.00489941
0.00489941
0.00489941
0.00489941
0.00489941
0.00489941
0.00489941
0.00489941
0.00489941
0.00489941
0.00489941
0.00489941
0.00489941
0.00489941
0.00489941
0.00489941
0.00489941
0.00489941
0.00489941
0.00489941
0.00489941
0.00489941
0.00489941
0.00489941
0.00489941
0.00489941
0.00489941
0.00489941
0.00512955
0.00512955
0.00512955
0.00512955
0.00512955
0.00512955
0.00512955
0.00512955
0.00512955
0.00512955
0.00512955
0.00512955
0.00512955
0.00512955
0.00512955
0.00512955
0.00512955
0.00512955
0.00512955
0.00512955
0.00512955
0.00512955
0.00512955
0.00512955
0.00512955
0.00512955
0.00512955
0.00512955
0.00512955
0.00512955
0.00536751
0.00536751
0.00536751
0.00536751
0.00536751
0.00536751
0.00536751
0.00536751
0.00536751
0.00536751
0.00536751
0.00536751
0.00536751
0.00536751
0.00536751
0.00536751
0.00536751
0.00536751
0.00536751
0.00536751
0.00536751
0.00536751
0.00536751
0.00536751
0.00536751
0.00536751
0.00536751
0.00536751
0.00536751
0.00536751
0.00561357
0.00561357
0.00561357
0.00561357
0.00561357
0.00561357
0.00561357
0.00561357
0.00561357
0.00561357
0.00561357
0.00561357
0.00561357
0.00561357
0.00561357
0.00561357
0.00561357
0.00561357
0.00561357
0.00561357
0.00561357
0.00561357
0.00561357
0.00561357
0.00561357
0.00561357
0.00561357
0.00561357
0.00561357
0.00561357
0.005868
0.005868
0.005868
0.005868
0.005868
0.005868
0.005868
0.005868
0.005868
0.005868
0.005868
0.005868
0.005868
0.005868
0.005868
0.005868
0.005868
0.005868
0.005868
0.005868
0.005868
0.005868
0.005868
0.005868
0.005868
0.005868
0.005868
0.005868
0.005868
0.005868
0.00613109
0.00613109
0.00613109
0.00613109
0.00613109
0.00613109
0.00613109
0.00613109
0.00613109
0.00613109
0.00613109
0.00613109
0.00613109
0.00613109
0.00613109
0.00613109
0.00613109
0.00613109
0.00613109
0.00613109
0.00613109
0.00613109
0.00613109
0.00613109
0.00613109
0.00613109
0.00613109
0.00613109
0.00613109
0.00613109
0.00640313
0.00640313
0.00640313
0.00640313
0.00640313
0.00640313
0.00640313
0.00640313
0.00640313
0.00640313
0.00640313
0.00640313
0.00640313
0.00640313
0.00640313
0.00640313
0.00640313
0.00640313
0.00640313
0.00640313
0.00640313
0.00640313
0.00640313
0.00640313
0.00640313
0.00640313
0.00640313
0.00640313
0.00640313
0.00640313
0.00668441
0.00668441
0.00668441
0.00668441
0.00668441
0.00668441
0.00668441
0.00668441
0.00668441
0.00668441
0.00668441
0.00668441
0.00668441
0.00668441
0.00668441
0.00668441
0.00668441
0.00668441
0.00668441
0.00668441
0.00668441
0.00668441
0.00668441
0.00668441
0.00668441
0.00668441
0.00668441
0.00668441
0.00668441
0.00668441
0.00697527
0.00697527
0.00697527
0.00697527
0.00697527
0.00697527
0.00697527
0.00697527
0.00697527
0.00697527
0.00697527
0.00697527
0.00697527
0.00697527
0.00697527
0.00697527
0.00697527
0.00697527
0.00697527
0.00697527
0.00697527
0.00697527
0.00697527
0.00697527
0.00697527
0.00697527
0.00697527
0.00697527
0.00697527
0.00697527
0.00727602
0.00727602
0.00727602
0.00727602
0.00727602
0.00727602
0.00727602
0.00727602
0.00727602
0.00727602
0.00727602
0.00727602
0.00727602
0.00727602
0.00727602
0.00727602
0.00727602
0.00727602
0.00727602
0.00727602
0.00727602
0.00727602
0.00727602
0.00727602
0.00727602
0.00727602
0.00727602
0.00727602
0.00727602
0.00727602
0.007587
0.007587
0.007587
0.007587
0.007587
0.007587
0.007587
0.007587
0.007587
0.007587
0.007587
0.007587
0.007587
0.007587
0.007587
0.007587
0.007587
0.007587
0.007587
0.007587
0.007587
0.007587
0.007587
0.007587
0.007587
0.007587
0.007587
0.007587
0.007587
0.007587
0.00790856
0.00790856
0.00790856
0.00790856
0.00790856
0.00790856
0.00790856
0.00790856
0.00790856
0.00790856
0.00790856
0.00790856
0.00790856
0.00790856
0.00790856
0.00790856
0.00790856
0.00790856
0.00790856
0.00790856
0.00790856
0.00790856
0.00790856
0.00790856
0.00790856
0.00790856
0.00790856
0.00790856
0.00790856
0.00790856
0.00824106
0.00824106
0.00824106
0.00824106
0.00824106
0.00824106
0.00824106
0.00824106
0.00824106
0.00824106
0.00824106
0.00824106
0.00824106
0.00824106
0.00824106
0.00824106
0.00824106
0.00824106
0.00824106
0.00824106
0.00824106
0.00824106
0.00824106
0.00824106
0.00824106
0.00824106
0.00824106
0.00824106
0.00824106
0.00824106
0.00858487
0.00858487
0.00858487
0.00858487
0.00858487
0.00858487
0.00858487
0.00858487
0.00858487
0.00858487
0.00858487
0.00858487
0.00858487
0.00858487
0.00858487
0.00858487
0.00858487
0.00858487
0.00858487
0.00858487
0.00858487
0.00858487
0.00858487
0.00858487
0.00858487
0.00858487
0.00858487
0.00858487
0.00858487
0.00858487
0.00894038
0.00894038
0.00894038
0.00894038
0.00894038
0.00894038
0.00894038
0.00894038
0.00894038
0.00894038
0.00894038
0.00894038
0.00894038
0.00894038
0.00894038
0.00894038
0.00894038
0.00894038
0.00894038
0.00894038
0.00894038
0.00894038
0.00894038
0.00894038
0.00894038
0.00894038
0.00894038
0.00894038
0.00894038
0.00894038
0.00930797
0.00930797
0.00930797
0.00930797
0.00930797
0.00930797
0.00930797
0.00930797
0.00930797
0.00930797
0.00930797
0.00930797
0.00930797
0.00930797
0.00930797
0.00930797
0.00930797
0.00930797
0.00930797
0.00930797
0.00930797
0.00930797
0.00930797
0.00930797
0.00930797
0.00930797
0.00930797
0.00930797
0.00930797
0.00930797
0.00968807
0.00968807
0.00968807
0.00968807
0.00968807
0.00968807
0.00968807
0.00968807
0.00968807
0.00968807
0.00968807
0.00968807
0.00968807
0.00968807
0.00968807
0.00968807
0.00968807
0.00968807
0.00968807
0.00968807
0.00968807
0.00968807
0.00968807
0.00968807
0.00968807
0.00968807
0.00968807
0.00968807
0.00968807
0.00968807
0.0100811
0.0100811
0.0100811
0.0100811
0.0100811
0.0100811
0.0100811
0.0100811
0.0100811
0.0100811
0.0100811
0.0100811
0.0100811
0.0100811
0.0100811
0.0100811
0.0100811
0.0100811
0.0100811
0.0100811
0.0100811
0.0100811
0.0100811
0.0100811
0.0100811
0.0100811
0.0100811
0.0100811
0.0100811
0.0100811
0.0104875
0.0104875
0.0104875
0.0104875
0.0104875
0.0104875
0.0104875
0.0104875
0.0104875
0.0104875
0.0104875
0.0104875
0.0104875
0.0104875
0.0104875
0.0104875
0.0104875
0.0104875
0.0104875
0.0104875
0.0104875
0.0104875
0.0104875
0.0104875
0.0104875
0.0104875
0.0104875
0.0104875
0.0104875
0.0104875
0.0109077
0.0109077
0.0109077
0.0109077
0.0109077
0.0109077
0.0109077
0.0109077
0.0109077
0.0109077
0.0109077
0.0109077
0.0109077
0.0109077
0.0109077
0.0109077
0.0109077
0.0109077
0.0109077
0.0109077
0.0109077
0.0109077
0.0109077
0.0109077
0.0109077
0.0109077
0.0109077
0.0109077
0.0109077
0.0109077
0.0113422
0.0113422
0.0113422
0.0113422
0.0113422
0.0113422
0.0113422
0.0113422
0.0113422
0.0113422
0.0113422
0.0113422
0.0113422
0.0113422
0.0113422
0.0113422
0.0113422
0.0113422
0.0113422
0.0113422
0.0113422
0.0113422
0.0113422
0.0113422
0.0113422
0.0113422
0.0113422
0.0113422
0.0113422
0.0113422
0.0117915
0.0117915
0.0117915
0.0117915
0.0117915
0.0117915
0.0117915
0.0117915
0.0117915
0.0117915
0.0117915
0.0117915
0.0117915
0.0117915
0.0117915
0.0117915
0.0117915
0.0117915
0.0117915
0.0117915
0.0117915
0.0117915
0.0117915
0.0117915
0.0117915
0.0117915
0.0117915
0.0117915
0.0117915
0.0117915
0.0122561
0.0122561
0.0122561
0.0122561
0.0122561
0.0122561
0.0122561
0.0122561
0.0122561
0.0122561
0.0122561
0.0122561
0.0122561
0.0122561
0.0122561
0.0122561
0.0122561
0.0122561
0.0122561
0.0122561
0.0122561
0.0122561
0.0122561
0.0122561
0.0122561
0.0122561
0.0122561
0.0122561
0.0122561
0.0122561
0.0127365
0.0127365
0.0127365
0.0127365
0.0127365
0.0127365
0.0127365
0.0127365
0.0127365
0.0127365
0.0127365
0.0127365
0.0127365
0.0127365
0.0127365
0.0127365
0.0127365
0.0127365
0.0127365
0.0127365
0.0127365
0.0127365
0.0127365
0.0127365
0.0127365
0.0127365
0.0127365
0.0127365
0.0127365
0.0127365
0.0132332
0.0132332
0.0132332
0.0132332
0.0132332
0.0132332
0.0132332
0.0132332
0.0132332
0.0132332
0.0132332
0.0132332
0.0132332
0.0132332
0.0132332
0.0132332
0.0132332
0.0132332
0.0132332
0.0132332
0.0132332
0.0132332
0.0132332
0.0132332
0.0132332
0.0132332
0.0132332
0.0132332
0.0132332
0.0132332
0.0137469
0.0137469
0.0137469
0.0137469
0.0137469
0.0137469
0.0137469
0.0137469
0.0137469
0.0137469
0.0137469
0.0137469
0.0137469
0.0137469
0.0137469
0.0137469
0.0137469
0.0137469
0.0137469
0.0137469
0.0137469
0.0137469
0.0137469
0.0137469
0.0137469
0.0137469
0.0137469
0.0137469
0.0137469
0.0137469
0.014278
0.014278
0.014278
0.014278
0.014278
0.014278
0.014278
0.014278
0.014278
0.014278
0.014278
0.014278
0.014278
0.014278
0.014278
0.014278
0.014278
0.014278
0.014278
0.014278
0.014278
0.014278
0.014278
0.014278
0.014278
0.014278
0.014278
0.014278
0.014278
0.014278
0.0148271
0.0148271
0.0148271
0.0148271
0.0148271
0.0148271
0.0148271
0.0148271
0.0148271
0.0148271
0.0148271
0.0148271
0.0148271
0.0148271
0.0148271
0.0148271
0.0148271
0.0148271
0.0148271
0.0148271
0.0148271
0.0148271
0.0148271
0.0148271
0.0148271
0.0148271
0.0148271
0.0148271
0.0148271
0.0148271
0.015395
0.015395
0.015395
0.015395
0.015395
0.015395
0.015395
0.015395
0.015395
0.015395
0.015395
0.015395
0.015395
0.015395
0.015395
0.015395
0.015395
0.015395
0.015395
0.015395
0.015395
0.015395
0.015395
0.015395
0.015395
0.015395
0.015395
0.015395
0.015395
0.015395
0.0159821
0.0159821
0.0159821
0.0159821
0.0159821
0.0159821
0.0159821
0.0159821
0.0159821
0.0159821
0.0159821
0.0159821
0.0159821
0.0159821
0.0159821
0.0159821
0.0159821
0.0159821
0.0159821
0.0159821
0.0159821
0.0159821
0.0159821
0.0159821
0.0159821
0.0159821
0.0159821
0.0159821
0.0159821
0.0159821
0.0165893
0.0165893
0.0165893
0.0165893
0.0165893
0.0165893
0.0165893
0.0165893
0.0165893
0.0165893
0.0165893
0.0165893
0.0165893
0.0165893
0.0165893
0.0165893
0.0165893
0.0165893
0.0165893
0.0165893
0.0165893
0.0165893
0.0165893
0.0165893
0.0165893
0.0165893
0.0165893
0.0165893
0.0165893
0.0165893
0.017217
0.017217
0.017217
0.017217
0.017217
0.017217
0.017217
0.017217
0.017217
0.017217
0.017217
0.017217
0.017217
0.017217
0.017217
0.017217
0.017217
0.017217
0.017217
0.017217
0.017217
0.017217
0.017217
0.017217
0.017217
0.017217
0.017217
0.017217
0.017217
0.017217
0.0178662
0.0178662
0.0178662
0.0178662
0.0178662
0.0178662
0.0178662
0.0178662
0.0178662
0.0178662
0.0178662
0.0178662
0.0178662
0.0178662
0.0178662
0.0178662
0.0178662
0.0178662
0.0178662
0.0178662
0.0178662
0.0178662
0.0178662
0.0178662
0.0178662
0.0178662
0.0178662
0.0178662
0.0178662
0.0178662
0.0185374
0.0185374
0.0185374
0.0185374
0.0185374
0.0185374
0.0185374
0.0185374
0.0185374
0.0185374
0.0185374
0.0185374
0.0185374
0.0185374
0.0185374
0.0185374
0.0185374
0.0185374
0.0185374
0.0185374
0.0185374
0.0185374
0.0185374
0.0185374
0.0185374
0.0185374
0.0185374
0.0185374
0.0185374
0.0185374
0.0192315
0.0192315
0.0192315
0.0192315
0.0192315
0.0192315
0.0192315
0.0192315
0.0192315
0.0192315
0.0192315
0.0192315
0.0192315
0.0192315
0.0192315
0.0192315
0.0192315
0.0192315
0.0192315
0.0192315
0.0192315
0.0192315
0.0192315
0.0192315
0.0192315
0.0192315
0.0192315
0.0192315
0.0192315
0.0192315
0.0199491
0.0199491
0.0199491
0.0199491
0.0199491
0.0199491
0.0199491
0.0199491
0.0199491
0.0199491
0.0199491
0.0199491
0.0199491
0.0199491
0.0199491
0.0199491
0.0199491
0.0199491
0.0199491
0.0199491
0.0199491
0.0199491
0.0199491
0.0199491
0.0199491
0.0199491
0.0199491
0.0199491
0.0199491
0.0199491
0.0206912
0.0206912
0.0206912
0.0206912
0.0206912
0.0206912
0.0206912
0.0206912
0.0206912
0.0206912
0.0206912
0.0206912
0.0206912
0.0206912
0.0206912
0.0206912
0.0206912
0.0206912
0.0206912
0.0206912
0.0206912
0.0206912
0.0206912
0.0206912
0.0206912
0.0206912
0.0206912
0.0206912
0.0206912
0.0206912
0.0214585
0.0214585
0.0214585
0.0214585
0.0214585
0.0214585
0.0214585
0.0214585
0.0214585
0.0214585
0.0214585
0.0214585
0.0214585
0.0214585
0.0214585
0.0214585
0.0214585
0.0214585
0.0214585
0.0214585
0.0214585
0.0214585
0.0214585
0.0214585
0.0214585
0.0214585
0.0214585
0.0214585
0.0214585
0.0214585
0.0222519
0.0222519
0.0222519
0.0222519
0.0222519
0.0222519
0.0222519
0.0222519
0.0222519
0.0222519
0.0222519
0.0222519
0.0222519
0.0222519
0.0222519
0.0222519
0.0222519
0.0222519
0.0222519
0.0222519
0.0222519
0.0222519
0.0222519
0.0222519
0.0222519
0.0222519
0.0222519
0.0222519
0.0222519
0.0222519
0.0230723
0.0230723
0.0230723
0.0230723
0.0230723
0.0230723
0.0230723
0.0230723
0.0230723
0.0230723
0.0230723
0.0230723
0.0230723
0.0230723
0.0230723
0.0230723
0.0230723
0.0230723
0.0230723
0.0230723
0.0230723
0.0230723
0.0230723
0.0230723
0.0230723
0.0230723
0.0230723
0.0230723
0.0230723
0.0230723
0.0239206
0.0239206
0.0239206
0.0239206
0.0239206
0.0239206
0.0239206
0.0239206
0.0239206
0.0239206
0.0239206
0.0239206
0.0239206
0.0239206
0.0239206
0.0239206
0.0239206
0.0239206
0.0239206
0.0239206
0.0239206
0.0239206
0.0239206
0.0239206
0.0239206
0.0239206
0.0239206
0.0239206
0.0239206
0.0239206
0.0247978
0.0247978
0.0247978
0.0247978
0.0247978
0.0247978
0.0247978
0.0247978
0.0247978
0.0247978
0.0247978
0.0247978
0.0247978
0.0247978
0.0247978
0.0247978
0.0247978
0.0247978
0.0247978
0.0247978
0.0247978
0.0247978
0.0247978
0.0247978
0.0247978
0.0247978
0.0247978
0.0247978
0.0247978
0.0247978
0.0257048
0.0257048
0.0257048
0.0257048
0.0257048
0.0257048
0.0257048
0.0257048
0.0257048
0.0257048
0.0257048
0.0257048
0.0257048
0.0257048
0.0257048
0.0257048
0.0257048
0.0257048
0.0257048
0.0257048
0.0257048
0.0257048
0.0257048
0.0257048
0.0257048
0.0257048
0.0257048
0.0257048
0.0257048
0.0257048
0.0266427
0.0266427
0.0266427
0.0266427
0.0266427
0.0266427
0.0266427
0.0266427
0.0266427
0.0266427
0.0266427
0.0266427
0.0266427
0.0266427
0.0266427
0.0266427
0.0266427
0.0266427
0.0266427
0.0266427
0.0266427
0.0266427
0.0266427
0.0266427
0.0266427
0.0266427
0.0266427
0.0266427
0.0266427
0.0266427
0.0276125
0.0276125
0.0276125
0.0276125
0.0276125
0.0276125
0.0276125
0.0276125
0.0276125
0.0276125
0.0276125
0.0276125
0.0276125
0.0276125
0.0276125
0.0276125
0.0276125
0.0276125
0.0276125
0.0276125
0.0276125
0.0276125
0.0276125
0.0276125
0.0276125
0.0276125
0.0276125
0.0276125
0.0276125
0.0276125
0.0286152
0.0286152
0.0286152
0.0286152
0.0286152
0.0286152
0.0286152
0.0286152
0.0286152
0.0286152
0.0286152
0.0286152
0.0286152
0.0286152
0.0286152
0.0286152
0.0286152
0.0286152
0.0286152
0.0286152
0.0286152
0.0286152
0.0286152
0.0286152
0.0286152
0.0286152
0.0286152
0.0286152
0.0286152
0.0286152
0.0296521
0.0296521
0.0296521
0.0296521
0.0296521
0.0296521
0.0296521
0.0296521
0.0296521
0.0296521
0.0296521
0.0296521
0.0296521
0.0296521
0.0296521
0.0296521
0.0296521
0.0296521
0.0296521
0.0296521
0.0296521
0.0296521
0.0296521
0.0296521
0.0296521
0.0296521
0.0296521
0.0296521
0.0296521
0.0296521
0.0307242
0.0307242
0.0307242
0.0307242
0.0307242
0.0307242
0.0307242
0.0307242
0.0307242
0.0307242
0.0307242
0.0307242
0.0307242
0.0307242
0.0307242
0.0307242
0.0307242
0.0307242
0.0307242
0.0307242
0.0307242
0.0307242
0.0307242
0.0307242
0.0307242
0.0307242
0.0307242
0.0307242
0.0307242
0.0307242
0.0318328
0.0318328
0.0318328
0.0318328
0.0318328
0.0318328
0.0318328
0.0318328
0.0318328
0.0318328
0.0318328
0.0318328
0.0318328
0.0318328
0.0318328
0.0318328
0.0318328
0.0318328
0.0318328
0.0318328
0.0318328
0.0318328
0.0318328
0.0318328
0.0318328
0.0318328
0.0318328
0.0318328
0.0318328
0.0318328
0.0329791
0.0329791
0.0329791
0.0329791
0.0329791
0.0329791
0.0329791
0.0329791
0.0329791
0.0329791
0.0329791
0.0329791
0.0329791
0.0329791
0.0329791
0.0329791
0.0329791
0.0329791
0.0329791
0.0329791
0.0329791
0.0329791
0.0329791
0.0329791
0.0329791
0.0329791
0.0329791
0.0329791
0.0329791
0.0329791
0.0341644
0.0341644
0.0341644
0.0341644
0.0341644
0.0341644
0.0341644
0.0341644
0.0341644
0.0341644
0.0341644
0.0341644
0.0341644
0.0341644
0.0341644
0.0341644
0.0341644
0.0341644
0.0341644
0.0341644
0.0341644
0.0341644
0.0341644
0.0341644
0.0341644
0.0341644
0.0341644
0.0341644
0.0341644
0.0341644
0.0353901
0.0353901
0.0353901
0.0353901
0.0353901
0.0353901
0.0353901
0.0353901
0.0353901
0.0353901
0.0353901
0.0353901
0.0353901
0.0353901
0.0353901
0.0353901
0.0353901
0.0353901
0.0353901
0.0353901
0.0353901
0.0353901
0.0353901
0.0353901
0.0353901
0.0353901
0.0353901
0.0353901
0.0353901
0.0353901
0.0366574
0.0366574
0.0366574
0.0366574
0.0366574
0.0366574
0.0366574
0.0366574
0.0366574
0.0366574
0.0366574
0.0366574
0.0366574
0.0366574
0.0366574
0.0366574
0.0366574
0.0366574
0.0366574
0.0366574
0.0366574
0.0366574
0.0366574
0.0366574
0.0366574
0.0366574
0.0366574
0.0366574
0.0366574
0.0366574
0.0379678
0.0379678
0.0379678
0.0379678
0.0379678
0.0379678
0.0379678
0.0379678
0.0379678
0.0379678
0.0379678
0.0379678