/*--------------------------------*- C++ -*----------------------------------*\
| =========                 |                                                 |
| \\      /  F ield         | OpenFOAM: The Open Source CFD Toolbox           |
|  \\    /   O peration     | Version:  2506                                  |
|   \\  /    A nd           | Website:  www.openfoam.com                      |
|    \\/     M anipulation  |                                                 |
\*---------------------------------------------------------------------------*/
FoamFile
{
    version     2.0;
    format      ascii;
    arch        "LSB;label=32;scalar=64";
    class       polyBoundaryMesh;
    location    "constant/polyMesh";
    object      boundary;
}
// * * * * * * * * * * * * * * * * * * * * * * * * * * * * * * * * * * * * * //

6
(
    inlet
    {
        type            patch;
        nFaces          0;
        startFace       35538;
    }
    outlet
    {
        type            patch;
        nFaces          175;
        startFace       35538;
    }
    bottom
    {
        type            wall;
        inGroups        1(wall);
        nFaces          102;
        startFace       35713;
    }
    top
    {
        type            patch;
        nFaces          103;
        startFace       35815;
    }
    frontAndBack
    {
        type            empty;
        inGroups        1(empty);
        nFaces          35816;
        startFace       35918;
    }
    procBoundary1to0
    {
        type            processor;
        inGroups        1(processor);
        nFaces          176;
        startFace       71734;
        matchTolerance  0.0001;
        transform       unknown;
        myProcNo        1;
        neighbProcNo    0;
    }
)

// ************************************************************************* //
