/*--------------------------------*- C++ -*----------------------------------*\
| =========                 |                                                 |
| \\      /  F ield         | OpenFOAM: The Open Source CFD Toolbox           |
|  \\    /   O peration     | Version:  2506                                  |
|   \\  /    A nd           | Website:  www.openfoam.com                      |
|    \\/     M anipulation  |                                                 |
\*---------------------------------------------------------------------------*/
FoamFile
{
    version     2.0;
    format      ascii;
    arch        "LSB;label=32;scalar=64";
    class       polyBoundaryMesh;
    location    "constant/polyMesh";
    object      boundary;
}
// * * * * * * * * * * * * * * * * * * * * * * * * * * * * * * * * * * * * * //

7
(
    inlet
    {
        type            patch;
        nFaces          0;
        startFace       36045;
    }
    outlet
    {
        type            patch;
        nFaces          0;
        startFace       36045;
    }
    bottom
    {
        type            wall;
        inGroups        1(wall);
        nFaces          104;
        startFace       36045;
    }
    top
    {
        type            patch;
        nFaces          104;
        startFace       36149;
    }
    frontAndBack
    {
        type            empty;
        inGroups        1(empty);
        nFaces          36326;
        startFace       36253;
    }
    procBoundary0to1
    {
        type            processor;
        inGroups        1(processor);
        nFaces          176;
        startFace       72579;
        matchTolerance  0.0001;
        transform       unknown;
        myProcNo        0;
        neighbProcNo    1;
    }
    procBoundary0to3
    {
        type            processor;
        inGroups        1(processor);
        nFaces          178;
        startFace       72755;
        matchTolerance  0.0001;
        transform       unknown;
        myProcNo        0;
        neighbProcNo    3;
    }
)

// ************************************************************************* //
