/*--------------------------------*- C++ -*----------------------------------*\
| =========                 |                                                 |
| \\      /  F ield         | OpenFOAM: The Open Source CFD Toolbox           |
|  \\    /   O peration     | Version:  2506                                  |
|   \\  /    A nd           | Website:  www.openfoam.com                      |
|    \\/     M anipulation  |                                                 |
\*---------------------------------------------------------------------------*/
FoamFile
{
    version     2.0;
    format      ascii;
    arch        "LSB;label=32;scalar=64";
    class       volScalarField;
    location    "0";
    object      Cx;
}
// * * * * * * * * * * * * * * * * * * * * * * * * * * * * * * * * * * * * * //

dimensions      [0 1 0 0 0 0 0];

internalField   nonuniform List<scalar> 
72100
(
-0.100156
-0.0971489
-0.094169
-0.0912163
-0.0882904
-0.0853912
-0.0825183
-0.0796716
-0.0768509
-0.0740558
-0.0712861
-0.0685417
-0.0658222
-0.0631276
-0.0604574
-0.0578116
-0.0551898
-0.0525919
-0.0500177
-0.0474669
-0.0449393
-0.0424347
-0.0399529
-0.0374937
-0.035057
-0.0326423
-0.0302497
-0.0278789
-0.0255296
-0.0232017
-0.0208951
-0.0186094
-0.0163445
-0.0141003
-0.0118764
-0.00967287
-0.00748935
-0.00532571
-0.00318177
-0.00105735
-0.100156
-0.0971489
-0.094169
-0.0912163
-0.0882904
-0.0853912
-0.0825183
-0.0796716
-0.0768509
-0.0740558
-0.0712861
-0.0685417
-0.0658222
-0.0631276
-0.0604574
-0.0578116
-0.0551898
-0.0525919
-0.0500177
-0.0474669
-0.0449393
-0.0424347
-0.0399529
-0.0374937
-0.035057
-0.0326423
-0.0302497
-0.0278789
-0.0255296
-0.0232017
-0.0208951
-0.0186094
-0.0163445
-0.0141003
-0.0118764
-0.00967287
-0.00748935
-0.00532571
-0.00318177
-0.00105735
-0.100156
-0.0971489
-0.094169
-0.0912163
-0.0882904
-0.0853912
-0.0825183
-0.0796716
-0.0768509
-0.0740558
-0.0712861
-0.0685417
-0.0658222
-0.0631276
-0.0604574
-0.0578116
-0.0551898
-0.0525919
-0.0500177
-0.0474669
-0.0449393
-0.0424347
-0.0399529
-0.0374937
-0.035057
-0.0326423
-0.0302497
-0.0278789
-0.0255296
-0.0232017
-0.0208951
-0.0186094
-0.0163445
-0.0141003
-0.0118764
-0.00967287
-0.00748935
-0.00532571
-0.00318177
-0.00105735
-0.100156
-0.0971489
-0.094169
-0.0912163
-0.0882904
-0.0853912
-0.0825183
-0.0796716
-0.0768509
-0.0740558
-0.0712861
-0.0685417
-0.0658222
-0.0631276
-0.0604574
-0.0578116
-0.0551898
-0.0525919
-0.0500177
-0.0474669
-0.0449393
-0.0424347
-0.0399529
-0.0374937
-0.035057
-0.0326423
-0.0302497
-0.0278789
-0.0255296
-0.0232017
-0.0208951
-0.0186094
-0.0163445
-0.0141003
-0.0118764
-0.00967287
-0.00748935
-0.00532571
-0.00318177
-0.00105735
-0.100156
-0.0971489
-0.094169
-0.0912163
-0.0882904
-0.0853912
-0.0825183
-0.0796716
-0.0768509
-0.0740558
-0.0712861
-0.0685417
-0.0658222
-0.0631276
-0.0604574
-0.0578116
-0.0551898
-0.0525919
-0.0500177
-0.0474669
-0.0449393
-0.0424347
-0.0399529
-0.0374937
-0.035057
-0.0326423
-0.0302497
-0.0278789
-0.0255296
-0.0232017
-0.0208951
-0.0186094
-0.0163445
-0.0141003
-0.0118764
-0.00967287
-0.00748935
-0.00532571
-0.00318177
-0.00105735
-0.100156
-0.0971489
-0.094169
-0.0912163
-0.0882904
-0.0853912
-0.0825183
-0.0796716
-0.0768509
-0.0740558
-0.0712861
-0.0685417
-0.0658222
-0.0631276
-0.0604574
-0.0578116
-0.0551898
-0.0525919
-0.0500177
-0.0474669
-0.0449393
-0.0424347
-0.0399529
-0.0374937
-0.035057
-0.0326423
-0.0302497
-0.0278789
-0.0255296
-0.0232017
-0.0208951
-0.0186094
-0.0163445
-0.0141003
-0.0118764
-0.00967287
-0.00748935
-0.00532571
-0.00318177
-0.00105735
-0.100156
-0.0971489
-0.094169
-0.0912163
-0.0882904
-0.0853912
-0.0825183
-0.0796716
-0.0768509
-0.0740558
-0.0712861
-0.0685417
-0.0658222
-0.0631276
-0.0604574
-0.0578116
-0.0551898
-0.0525919
-0.0500177
-0.0474669
-0.0449393
-0.0424347
-0.0399529
-0.0374937
-0.035057
-0.0326423
-0.0302497
-0.0278789
-0.0255296
-0.0232017
-0.0208951
-0.0186094
-0.0163445
-0.0141003
-0.0118764
-0.00967287
-0.00748935
-0.00532571
-0.00318177
-0.00105735
-0.100156
-0.0971489
-0.094169
-0.0912163
-0.0882904
-0.0853912
-0.0825183
-0.0796716
-0.0768509
-0.0740558
-0.0712861
-0.0685417
-0.0658222
-0.0631276
-0.0604574
-0.0578116
-0.0551898
-0.0525919
-0.0500177
-0.0474669
-0.0449393
-0.0424347
-0.0399529
-0.0374937
-0.035057
-0.0326423
-0.0302497
-0.0278789
-0.0255296
-0.0232017
-0.0208951
-0.0186094
-0.0163445
-0.0141003
-0.0118764
-0.00967287
-0.00748935
-0.00532571
-0.00318177
-0.00105735
-0.100156
-0.0971489
-0.094169
-0.0912163
-0.0882904
-0.0853912
-0.0825183
-0.0796716
-0.0768509
-0.0740558
-0.0712861
-0.0685417
-0.0658222
-0.0631276
-0.0604574
-0.0578116
-0.0551898
-0.0525919
-0.0500177
-0.0474669
-0.0449393
-0.0424347
-0.0399529
-0.0374937
-0.035057
-0.0326423
-0.0302497
-0.0278789
-0.0255296
-0.0232017
-0.0208951
-0.0186094
-0.0163445
-0.0141003
-0.0118764
-0.00967287
-0.00748935
-0.00532571
-0.00318177
-0.00105735
-0.100156
-0.0971489
-0.094169
-0.0912163
-0.0882904
-0.0853912
-0.0825183
-0.0796716
-0.0768509
-0.0740558
-0.0712861
-0.0685417
-0.0658222
-0.0631276
-0.0604574
-0.0578116
-0.0551898
-0.0525919
-0.0500177
-0.0474669
-0.0449393
-0.0424347
-0.0399529
-0.0374937
-0.035057
-0.0326423
-0.0302497
-0.0278789
-0.0255296
-0.0232017
-0.0208951
-0.0186094
-0.0163445
-0.0141003
-0.0118764
-0.00967287
-0.00748935
-0.00532571
-0.00318177
-0.00105735
-0.100156
-0.0971489
-0.094169
-0.0912163
-0.0882904
-0.0853912
-0.0825183
-0.0796716
-0.0768509
-0.0740558
-0.0712861
-0.0685417
-0.0658222
-0.0631276
-0.0604574
-0.0578116
-0.0551898
-0.0525919
-0.0500177
-0.0474669
-0.0449393
-0.0424347
-0.0399529
-0.0374937
-0.035057
-0.0326423
-0.0302497
-0.0278789
-0.0255296
-0.0232017
-0.0208951
-0.0186094
-0.0163445
-0.0141003
-0.0118764
-0.00967287
-0.00748935
-0.00532571
-0.00318177
-0.00105735
-0.100156
-0.0971489
-0.094169
-0.0912163
-0.0882904
-0.0853912
-0.0825183
-0.0796716
-0.0768509
-0.0740558
-0.0712861
-0.0685417
-0.0658222
-0.0631276
-0.0604574
-0.0578116
-0.0551898
-0.0525919
-0.0500177
-0.0474669
-0.0449393
-0.0424347
-0.0399529
-0.0374937
-0.035057
-0.0326423
-0.0302497
-0.0278789
-0.0255296
-0.0232017
-0.0208951
-0.0186094
-0.0163445
-0.0141003
-0.0118764
-0.00967287
-0.00748935
-0.00532571
-0.00318177
-0.00105735
-0.100156
-0.0971489
-0.094169
-0.0912163
-0.0882904
-0.0853912
-0.0825183
-0.0796716
-0.0768509
-0.0740558
-0.0712861
-0.0685417
-0.0658222
-0.0631276
-0.0604574
-0.0578116
-0.0551898
-0.0525919
-0.0500177
-0.0474669
-0.0449393
-0.0424347
-0.0399529
-0.0374937
-0.035057
-0.0326423
-0.0302497
-0.0278789
-0.0255296
-0.0232017
-0.0208951
-0.0186094
-0.0163445
-0.0141003
-0.0118764
-0.00967287
-0.00748935
-0.00532571
-0.00318177
-0.00105735
-0.100156
-0.0971489
-0.094169
-0.0912163
-0.0882904
-0.0853912
-0.0825183
-0.0796716
-0.0768509
-0.0740558
-0.0712861
-0.0685417
-0.0658222
-0.0631276
-0.0604574
-0.0578116
-0.0551898
-0.0525919
-0.0500177
-0.0474669
-0.0449393
-0.0424347
-0.0399529
-0.0374937
-0.035057
-0.0326423
-0.0302497
-0.0278789
-0.0255296
-0.0232017
-0.0208951
-0.0186094
-0.0163445
-0.0141003
-0.0118764
-0.00967287
-0.00748935
-0.00532571
-0.00318177
-0.00105735
-0.100156
-0.0971489
-0.094169
-0.0912163
-0.0882904
-0.0853912
-0.0825183
-0.0796716
-0.0768509
-0.0740558
-0.0712861
-0.0685417
-0.0658222
-0.0631276
-0.0604574
-0.0578116
-0.0551898
-0.0525919
-0.0500177
-0.0474669
-0.0449393
-0.0424347
-0.0399529
-0.0374937
-0.035057
-0.0326423
-0.0302497
-0.0278789
-0.0255296
-0.0232017
-0.0208951
-0.0186094
-0.0163445
-0.0141003
-0.0118764
-0.00967287
-0.00748935
-0.00532571
-0.00318177
-0.00105735
-0.100156
-0.0971489
-0.094169
-0.0912163
-0.0882904
-0.0853912
-0.0825183
-0.0796716
-0.0768509
-0.0740558
-0.0712861
-0.0685417
-0.0658222
-0.0631276
-0.0604574
-0.0578116
-0.0551898
-0.0525919
-0.0500177
-0.0474669
-0.0449393
-0.0424347
-0.0399529
-0.0374937
-0.035057
-0.0326423
-0.0302497
-0.0278789
-0.0255296
-0.0232017
-0.0208951
-0.0186094
-0.0163445
-0.0141003
-0.0118764
-0.00967287
-0.00748935
-0.00532571
-0.00318177
-0.00105735
-0.100156
-0.0971489
-0.094169
-0.0912163
-0.0882904
-0.0853912
-0.0825183
-0.0796716
-0.0768509
-0.0740558
-0.0712861
-0.0685417
-0.0658222
-0.0631276
-0.0604574
-0.0578116
-0.0551898
-0.0525919
-0.0500177
-0.0474669
-0.0449393
-0.0424347
-0.0399529
-0.0374937
-0.035057
-0.0326423
-0.0302497
-0.0278789
-0.0255296
-0.0232017
-0.0208951
-0.0186094
-0.0163445
-0.0141003
-0.0118764
-0.00967287
-0.00748935
-0.00532571
-0.00318177
-0.00105735
-0.100156
-0.0971489
-0.094169
-0.0912163
-0.0882904
-0.0853912
-0.0825183
-0.0796716
-0.0768509
-0.0740558
-0.0712861
-0.0685417
-0.0658222
-0.0631276
-0.0604574
-0.0578116
-0.0551898
-0.0525919
-0.0500177
-0.0474669
-0.0449393
-0.0424347
-0.0399529
-0.0374937
-0.035057
-0.0326423
-0.0302497
-0.0278789
-0.0255296
-0.0232017
-0.0208951
-0.0186094
-0.0163445
-0.0141003
-0.0118764
-0.00967287
-0.00748935
-0.00532571
-0.00318177
-0.00105735
-0.100156
-0.0971489
-0.094169
-0.0912163
-0.0882904
-0.0853912
-0.0825183
-0.0796716
-0.0768509
-0.0740558
-0.0712861
-0.0685417
-0.0658222
-0.0631276
-0.0604574
-0.0578116
-0.0551898
-0.0525919
-0.0500177
-0.0474669
-0.0449393
-0.0424347
-0.0399529
-0.0374937
-0.035057
-0.0326423
-0.0302497
-0.0278789
-0.0255296
-0.0232017
-0.0208951
-0.0186094
-0.0163445
-0.0141003
-0.0118764
-0.00967287
-0.00748935
-0.00532571
-0.00318177
-0.00105735
-0.100156
-0.0971489
-0.094169
-0.0912163
-0.0882904
-0.0853912
-0.0825183
-0.0796716
-0.0768509
-0.0740558
-0.0712861
-0.0685417
-0.0658222
-0.0631276
-0.0604574
-0.0578116
-0.0551898
-0.0525919
-0.0500177
-0.0474669
-0.0449393
-0.0424347
-0.0399529
-0.0374937
-0.035057
-0.0326423
-0.0302497
-0.0278789
-0.0255296
-0.0232017
-0.0208951
-0.0186094
-0.0163445
-0.0141003
-0.0118764
-0.00967287
-0.00748935
-0.00532571
-0.00318177
-0.00105735
-0.100156
-0.0971489
-0.094169
-0.0912163
-0.0882904
-0.0853912
-0.0825183
-0.0796716
-0.0768509
-0.0740558
-0.0712861
-0.0685417
-0.0658222
-0.0631276
-0.0604574
-0.0578116
-0.0551898
-0.0525919
-0.0500177
-0.0474669
-0.0449393
-0.0424347
-0.0399529
-0.0374937
-0.035057
-0.0326423
-0.0302497
-0.0278789
-0.0255296
-0.0232017
-0.0208951
-0.0186094
-0.0163445
-0.0141003
-0.0118764
-0.00967287
-0.00748935
-0.00532571
-0.00318177
-0.00105735
-0.100156
-0.0971489
-0.094169
-0.0912163
-0.0882904
-0.0853912
-0.0825183
-0.0796716
-0.0768509
-0.0740558
-0.0712861
-0.0685417
-0.0658222
-0.0631276
-0.0604574
-0.0578116
-0.0551898
-0.0525919
-0.0500177
-0.0474669
-0.0449393
-0.0424347
-0.0399529
-0.0374937
-0.035057
-0.0326423
-0.0302497
-0.0278789
-0.0255296
-0.0232017
-0.0208951
-0.0186094
-0.0163445
-0.0141003
-0.0118764
-0.00967287
-0.00748935
-0.00532571
-0.00318177
-0.00105735
-0.100156
-0.0971489
-0.094169
-0.0912163
-0.0882904
-0.0853912
-0.0825183
-0.0796716
-0.0768509
-0.0740558
-0.0712861
-0.0685417
-0.0658222
-0.0631276
-0.0604574
-0.0578116
-0.0551898
-0.0525919
-0.0500177
-0.0474669
-0.0449393
-0.0424347
-0.0399529
-0.0374937
-0.035057
-0.0326423
-0.0302497
-0.0278789
-0.0255296
-0.0232017
-0.0208951
-0.0186094
-0.0163445
-0.0141003
-0.0118764
-0.00967287
-0.00748935
-0.00532571
-0.00318177
-0.00105735
-0.100156
-0.0971489
-0.094169
-0.0912163
-0.0882904
-0.0853912
-0.0825183
-0.0796716
-0.0768509
-0.0740558
-0.0712861
-0.0685417
-0.0658222
-0.0631276
-0.0604574
-0.0578116
-0.0551898
-0.0525919
-0.0500177
-0.0474669
-0.0449393
-0.0424347
-0.0399529
-0.0374937
-0.035057
-0.0326423
-0.0302497
-0.0278789
-0.0255296
-0.0232017
-0.0208951
-0.0186094
-0.0163445
-0.0141003
-0.0118764
-0.00967287
-0.00748935
-0.00532571
-0.00318177
-0.00105735
-0.100156
-0.0971489
-0.094169
-0.0912163
-0.0882904
-0.0853912
-0.0825183
-0.0796716
-0.0768509
-0.0740558
-0.0712861
-0.0685417
-0.0658222
-0.0631276
-0.0604574
-0.0578116
-0.0551898
-0.0525919
-0.0500177
-0.0474669
-0.0449393
-0.0424347
-0.0399529
-0.0374937
-0.035057
-0.0326423
-0.0302497
-0.0278789
-0.0255296
-0.0232017
-0.0208951
-0.0186094
-0.0163445
-0.0141003
-0.0118764
-0.00967287
-0.00748935
-0.00532571
-0.00318177
-0.00105735
-0.100156
-0.0971489
-0.094169
-0.0912163
-0.0882904
-0.0853912
-0.0825183
-0.0796716
-0.0768509
-0.0740558
-0.0712861
-0.0685417
-0.0658222
-0.0631276
-0.0604574
-0.0578116
-0.0551898
-0.0525919
-0.0500177
-0.0474669
-0.0449393
-0.0424347
-0.0399529
-0.0374937
-0.035057
-0.0326423
-0.0302497
-0.0278789
-0.0255296
-0.0232017
-0.0208951
-0.0186094
-0.0163445
-0.0141003
-0.0118764
-0.00967287
-0.00748935
-0.00532571
-0.00318177
-0.00105735
-0.100156
-0.0971489
-0.094169
-0.0912163
-0.0882904
-0.0853912
-0.0825183
-0.0796716
-0.0768509
-0.0740558
-0.0712861
-0.0685417
-0.0658222
-0.0631276
-0.0604574
-0.0578116
-0.0551898
-0.0525919
-0.0500177
-0.0474669
-0.0449393
-0.0424347
-0.0399529
-0.0374937
-0.035057
-0.0326423
-0.0302497
-0.0278789
-0.0255296
-0.0232017
-0.0208951
-0.0186094
-0.0163445
-0.0141003
-0.0118764
-0.00967287
-0.00748935
-0.00532571
-0.00318177
-0.00105735
-0.100156
-0.0971489
-0.094169
-0.0912163
-0.0882904
-0.0853912
-0.0825183
-0.0796716
-0.0768509
-0.0740558
-0.0712861
-0.0685417
-0.0658222
-0.0631276
-0.0604574
-0.0578116
-0.0551898
-0.0525919
-0.0500177
-0.0474669
-0.0449393
-0.0424347
-0.0399529
-0.0374937
-0.035057
-0.0326423
-0.0302497
-0.0278789
-0.0255296
-0.0232017
-0.0208951
-0.0186094
-0.0163445
-0.0141003
-0.0118764
-0.00967287
-0.00748935
-0.00532571
-0.00318177
-0.00105735
-0.100156
-0.0971489
-0.094169
-0.0912163
-0.0882904
-0.0853912
-0.0825183
-0.0796716
-0.0768509
-0.0740558
-0.0712861
-0.0685417
-0.0658222
-0.0631276
-0.0604574
-0.0578116
-0.0551898
-0.0525919
-0.0500177
-0.0474669
-0.0449393
-0.0424347
-0.0399529
-0.0374937
-0.035057
-0.0326423
-0.0302497
-0.0278789
-0.0255296
-0.0232017
-0.0208951
-0.0186094
-0.0163445
-0.0141003
-0.0118764
-0.00967287
-0.00748935
-0.00532571
-0.00318177
-0.00105735
-0.100156
-0.0971489
-0.094169
-0.0912163
-0.0882904
-0.0853912
-0.0825183
-0.0796716
-0.0768509
-0.0740558
-0.0712861
-0.0685417
-0.0658222
-0.0631276
-0.0604574
-0.0578116
-0.0551898
-0.0525919
-0.0500177
-0.0474669
-0.0449393
-0.0424347
-0.0399529
-0.0374937
-0.035057
-0.0326423
-0.0302497
-0.0278789
-0.0255296
-0.0232017
-0.0208951
-0.0186094
-0.0163445
-0.0141003
-0.0118764
-0.00967287
-0.00748935
-0.00532571
-0.00318177
-0.00105735
-0.100156
-0.0971489
-0.094169
-0.0912163
-0.0882904
-0.0853912
-0.0825183
-0.0796716
-0.0768509
-0.0740558
-0.0712861
-0.0685417
-0.0658222
-0.0631276
-0.0604574
-0.0578116
-0.0551898
-0.0525919
-0.0500177
-0.0474669
-0.0449393
-0.0424347
-0.0399529
-0.0374937
-0.035057
-0.0326423
-0.0302497
-0.0278789
-0.0255296
-0.0232017
-0.0208951
-0.0186094
-0.0163445
-0.0141003
-0.0118764
-0.00967287
-0.00748935
-0.00532571
-0.00318177
-0.00105735
-0.100156
-0.0971489
-0.094169
-0.0912163
-0.0882904
-0.0853912
-0.0825183
-0.0796716
-0.0768509
-0.0740558
-0.0712861
-0.0685417
-0.0658222
-0.0631276
-0.0604574
-0.0578116
-0.0551898
-0.0525919
-0.0500177
-0.0474669
-0.0449393
-0.0424347
-0.0399529
-0.0374937
-0.035057
-0.0326423
-0.0302497
-0.0278789
-0.0255296
-0.0232017
-0.0208951
-0.0186094
-0.0163445
-0.0141003
-0.0118764
-0.00967287
-0.00748935
-0.00532571
-0.00318177
-0.00105735
-0.100156
-0.0971489
-0.094169
-0.0912163
-0.0882904
-0.0853912
-0.0825183
-0.0796716
-0.0768509
-0.0740558
-0.0712861
-0.0685417
-0.0658222
-0.0631276
-0.0604574
-0.0578116
-0.0551898
-0.0525919
-0.0500177
-0.0474669
-0.0449393
-0.0424347
-0.0399529
-0.0374937
-0.035057
-0.0326423
-0.0302497
-0.0278789
-0.0255296
-0.0232017
-0.0208951
-0.0186094
-0.0163445
-0.0141003
-0.0118764
-0.00967287
-0.00748935
-0.00532571
-0.00318177
-0.00105735
-0.100156
-0.0971489
-0.094169
-0.0912163
-0.0882904
-0.0853912
-0.0825183
-0.0796716
-0.0768509
-0.0740558
-0.0712861
-0.0685417
-0.0658222
-0.0631276
-0.0604574
-0.0578116
-0.0551898
-0.0525919
-0.0500177
-0.0474669
-0.0449393
-0.0424347
-0.0399529
-0.0374937
-0.035057
-0.0326423
-0.0302497
-0.0278789
-0.0255296
-0.0232017
-0.0208951
-0.0186094
-0.0163445
-0.0141003
-0.0118764
-0.00967287
-0.00748935
-0.00532571
-0.00318177
-0.00105735
-0.100156
-0.0971489
-0.094169
-0.0912163
-0.0882904
-0.0853912
-0.0825183
-0.0796716
-0.0768509
-0.0740558
-0.0712861
-0.0685417
-0.0658222
-0.0631276
-0.0604574
-0.0578116
-0.0551898
-0.0525919
-0.0500177
-0.0474669
-0.0449393
-0.0424347
-0.0399529
-0.0374937
-0.035057
-0.0326423
-0.0302497
-0.0278789
-0.0255296
-0.0232017
-0.0208951
-0.0186094
-0.0163445
-0.0141003
-0.0118764
-0.00967287
-0.00748935
-0.00532571
-0.00318177
-0.00105735
-0.100156
-0.0971489
-0.094169
-0.0912163
-0.0882904
-0.0853912
-0.0825183
-0.0796716
-0.0768509
-0.0740558
-0.0712861
-0.0685417
-0.0658222
-0.0631276
-0.0604574
-0.0578116
-0.0551898
-0.0525919
-0.0500177
-0.0474669
-0.0449393
-0.0424347
-0.0399529
-0.0374937
-0.035057
-0.0326423
-0.0302497
-0.0278789
-0.0255296
-0.0232017
-0.0208951
-0.0186094
-0.0163445
-0.0141003
-0.0118764
-0.00967287
-0.00748935
-0.00532571
-0.00318177
-0.00105735
-0.100156
-0.0971489
-0.094169
-0.0912163
-0.0882904
-0.0853912
-0.0825183
-0.0796716
-0.0768509
-0.0740558
-0.0712861
-0.0685417
-0.0658222
-0.0631276
-0.0604574
-0.0578116
-0.0551898
-0.0525919
-0.0500177
-0.0474669
-0.0449393
-0.0424347
-0.0399529
-0.0374937
-0.035057
-0.0326423
-0.0302497
-0.0278789
-0.0255296
-0.0232017
-0.0208951
-0.0186094
-0.0163445
-0.0141003
-0.0118764
-0.00967287
-0.00748935
-0.00532571
-0.00318177
-0.00105735
-0.100156
-0.0971489
-0.094169
-0.0912163
-0.0882904
-0.0853912
-0.0825183
-0.0796716
-0.0768509
-0.0740558
-0.0712861
-0.0685417
-0.0658222
-0.0631276
-0.0604574
-0.0578116
-0.0551898
-0.0525919
-0.0500177
-0.0474669
-0.0449393
-0.0424347
-0.0399529
-0.0374937
-0.035057
-0.0326423
-0.0302497
-0.0278789
-0.0255296
-0.0232017
-0.0208951
-0.0186094
-0.0163445
-0.0141003
-0.0118764
-0.00967287
-0.00748935
-0.00532571
-0.00318177
-0.00105735
-0.100156
-0.0971489
-0.094169
-0.0912163
-0.0882904
-0.0853912
-0.0825183
-0.0796716
-0.0768509
-0.0740558
-0.0712861
-0.0685417
-0.0658222
-0.0631276
-0.0604574
-0.0578116
-0.0551898
-0.0525919
-0.0500177
-0.0474669
-0.0449393
-0.0424347
-0.0399529
-0.0374937
-0.035057
-0.0326423
-0.0302497
-0.0278789
-0.0255296
-0.0232017
-0.0208951
-0.0186094
-0.0163445
-0.0141003
-0.0118764
-0.00967287
-0.00748935
-0.00532571
-0.00318177
-0.00105735
-0.100156
-0.0971489
-0.094169
-0.0912163
-0.0882904
-0.0853912
-0.0825183
-0.0796716
-0.0768509
-0.0740558
-0.0712861
-0.0685417
-0.0658222
-0.0631276
-0.0604574
-0.0578116
-0.0551898
-0.0525919
-0.0500177
-0.0474669
-0.0449393
-0.0424347
-0.0399529
-0.0374937
-0.035057
-0.0326423
-0.0302497
-0.0278789
-0.0255296
-0.0232017
-0.0208951
-0.0186094
-0.0163445
-0.0141003
-0.0118764
-0.00967287
-0.00748935
-0.00532571
-0.00318177
-0.00105735
-0.100156
-0.0971489
-0.094169
-0.0912163
-0.0882904
-0.0853912
-0.0825183
-0.0796716
-0.0768509
-0.0740558
-0.0712861
-0.0685417
-0.0658222
-0.0631276
-0.0604574
-0.0578116
-0.0551898
-0.0525919
-0.0500177
-0.0474669
-0.0449393
-0.0424347
-0.0399529
-0.0374937
-0.035057
-0.0326423
-0.0302497
-0.0278789
-0.0255296
-0.0232017
-0.0208951
-0.0186094
-0.0163445
-0.0141003
-0.0118764
-0.00967287
-0.00748935
-0.00532571
-0.00318177
-0.00105735
-0.100156
-0.0971489
-0.094169
-0.0912163
-0.0882904
-0.0853912
-0.0825183
-0.0796716
-0.0768509
-0.0740558
-0.0712861
-0.0685417
-0.0658222
-0.0631276
-0.0604574
-0.0578116
-0.0551898
-0.0525919
-0.0500177
-0.0474669
-0.0449393
-0.0424347
-0.0399529
-0.0374937
-0.035057
-0.0326423
-0.0302497
-0.0278789
-0.0255296
-0.0232017
-0.0208951
-0.0186094
-0.0163445
-0.0141003
-0.0118764
-0.00967287
-0.00748935
-0.00532571
-0.00318177
-0.00105735
-0.100156
-0.0971489
-0.094169
-0.0912163
-0.0882904
-0.0853912
-0.0825183
-0.0796716
-0.0768509
-0.0740558
-0.0712861
-0.0685417
-0.0658222
-0.0631276
-0.0604574
-0.0578116
-0.0551898
-0.0525919
-0.0500177
-0.0474669
-0.0449393
-0.0424347
-0.0399529
-0.0374937
-0.035057
-0.0326423
-0.0302497
-0.0278789
-0.0255296
-0.0232017
-0.0208951
-0.0186094
-0.0163445
-0.0141003
-0.0118764
-0.00967287
-0.00748935
-0.00532571
-0.00318177
-0.00105735
-0.100156
-0.0971489
-0.094169
-0.0912163
-0.0882904
-0.0853912
-0.0825183
-0.0796716
-0.0768509
-0.0740558
-0.0712861
-0.0685417
-0.0658222
-0.0631276
-0.0604574
-0.0578116
-0.0551898
-0.0525919
-0.0500177
-0.0474669
-0.0449393
-0.0424347
-0.0399529
-0.0374937
-0.035057
-0.0326423
-0.0302497
-0.0278789
-0.0255296
-0.0232017
-0.0208951
-0.0186094
-0.0163445
-0.0141003
-0.0118764
-0.00967287
-0.00748935
-0.00532571
-0.00318177
-0.00105735
-0.100156
-0.0971489
-0.094169
-0.0912163
-0.0882904
-0.0853912
-0.0825183
-0.0796716
-0.0768509
-0.0740558
-0.0712861
-0.0685417
-0.0658222
-0.0631276
-0.0604574
-0.0578116
-0.0551898
-0.0525919
-0.0500177
-0.0474669
-0.0449393
-0.0424347
-0.0399529
-0.0374937
-0.035057
-0.0326423
-0.0302497
-0.0278789
-0.0255296
-0.0232017
-0.0208951
-0.0186094
-0.0163445
-0.0141003
-0.0118764
-0.00967287
-0.00748935
-0.00532571
-0.00318177
-0.00105735
-0.100156
-0.0971489
-0.094169
-0.0912163
-0.0882904
-0.0853912
-0.0825183
-0.0796716
-0.0768509
-0.0740558
-0.0712861
-0.0685417
-0.0658222
-0.0631276
-0.0604574
-0.0578116
-0.0551898
-0.0525919
-0.0500177
-0.0474669
-0.0449393
-0.0424347
-0.0399529
-0.0374937
-0.035057
-0.0326423
-0.0302497
-0.0278789
-0.0255296
-0.0232017
-0.0208951
-0.0186094
-0.0163445
-0.0141003
-0.0118764
-0.00967287
-0.00748935
-0.00532571
-0.00318177
-0.00105735
-0.100156
-0.0971489
-0.094169
-0.0912163
-0.0882904
-0.0853912
-0.0825183
-0.0796716
-0.0768509
-0.0740558
-0.0712861
-0.0685417
-0.0658222
-0.0631276
-0.0604574
-0.0578116
-0.0551898
-0.0525919
-0.0500177
-0.0474669
-0.0449393
-0.0424347
-0.0399529
-0.0374937
-0.035057
-0.0326423
-0.0302497
-0.0278789
-0.0255296
-0.0232017
-0.0208951
-0.0186094
-0.0163445
-0.0141003
-0.0118764
-0.00967287
-0.00748935
-0.00532571
-0.00318177
-0.00105735
-0.100156
-0.0971489
-0.094169
-0.0912163
-0.0882904
-0.0853912
-0.0825183
-0.0796716
-0.0768509
-0.0740558
-0.0712861
-0.0685417
-0.0658222
-0.0631276
-0.0604574
-0.0578116
-0.0551898
-0.0525919
-0.0500177
-0.0474669
-0.0449393
-0.0424347
-0.0399529
-0.0374937
-0.035057
-0.0326423
-0.0302497
-0.0278789
-0.0255296
-0.0232017
-0.0208951
-0.0186094
-0.0163445
-0.0141003
-0.0118764
-0.00967287
-0.00748935
-0.00532571
-0.00318177
-0.00105735
-0.100156
-0.0971489
-0.094169
-0.0912163
-0.0882904
-0.0853912
-0.0825183
-0.0796716
-0.0768509
-0.0740558
-0.0712861
-0.0685417
-0.0658222
-0.0631276
-0.0604574
-0.0578116
-0.0551898
-0.0525919
-0.0500177
-0.0474669
-0.0449393
-0.0424347
-0.0399529
-0.0374937
-0.035057
-0.0326423
-0.0302497
-0.0278789
-0.0255296
-0.0232017
-0.0208951
-0.0186094
-0.0163445
-0.0141003
-0.0118764
-0.00967287
-0.00748935
-0.00532571
-0.00318177
-0.00105735
-0.100156
-0.0971489
-0.094169
-0.0912163
-0.0882904
-0.0853912
-0.0825183
-0.0796716
-0.0768509
-0.0740558
-0.0712861
-0.0685417
-0.0658222
-0.0631276
-0.0604574
-0.0578116
-0.0551898
-0.0525919
-0.0500177
-0.0474669
-0.0449393
-0.0424347
-0.0399529
-0.0374937
-0.035057
-0.0326423
-0.0302497
-0.0278789
-0.0255296
-0.0232017
-0.0208951
-0.0186094
-0.0163445
-0.0141003
-0.0118764
-0.00967287
-0.00748935
-0.00532571
-0.00318177
-0.00105735
-0.100156
-0.0971489
-0.094169
-0.0912163
-0.0882904
-0.0853912
-0.0825183
-0.0796716
-0.0768509
-0.0740558
-0.0712861
-0.0685417
-0.0658222
-0.0631276
-0.0604574
-0.0578116
-0.0551898
-0.0525919
-0.0500177
-0.0474669
-0.0449393
-0.0424347
-0.0399529
-0.0374937
-0.035057
-0.0326423
-0.0302497
-0.0278789
-0.0255296
-0.0232017
-0.0208951
-0.0186094
-0.0163445
-0.0141003
-0.0118764
-0.00967287
-0.00748935
-0.00532571
-0.00318177
-0.00105735
-0.100156
-0.0971489
-0.094169
-0.0912163
-0.0882904
-0.0853912
-0.0825183
-0.0796716
-0.0768509
-0.0740558
-0.0712861
-0.0685417
-0.0658222
-0.0631276
-0.0604574
-0.0578116
-0.0551898
-0.0525919
-0.0500177
-0.0474669
-0.0449393
-0.0424347
-0.0399529
-0.0374937
-0.035057
-0.0326423
-0.0302497
-0.0278789
-0.0255296
-0.0232017
-0.0208951
-0.0186094
-0.0163445
-0.0141003
-0.0118764
-0.00967287
-0.00748935
-0.00532571
-0.00318177
-0.00105735
-0.100156
-0.0971489
-0.094169
-0.0912163
-0.0882904
-0.0853912
-0.0825183
-0.0796716
-0.0768509
-0.0740558
-0.0712861
-0.0685417
-0.0658222
-0.0631276
-0.0604574
-0.0578116
-0.0551898
-0.0525919
-0.0500177
-0.0474669
-0.0449393
-0.0424347
-0.0399529
-0.0374937
-0.035057
-0.0326423
-0.0302497
-0.0278789
-0.0255296
-0.0232017
-0.0208951
-0.0186094
-0.0163445
-0.0141003
-0.0118764
-0.00967287
-0.00748935
-0.00532571
-0.00318177
-0.00105735
-0.100156
-0.0971489
-0.094169
-0.0912163
-0.0882904
-0.0853912
-0.0825183
-0.0796716
-0.0768509
-0.0740558
-0.0712861
-0.0685417
-0.0658222
-0.0631276
-0.0604574
-0.0578116
-0.0551898
-0.0525919
-0.0500177
-0.0474669
-0.0449393
-0.0424347
-0.0399529
-0.0374937
-0.035057
-0.0326423
-0.0302497
-0.0278789
-0.0255296
-0.0232017
-0.0208951
-0.0186094
-0.0163445
-0.0141003
-0.0118764
-0.00967287
-0.00748935
-0.00532571
-0.00318177
-0.00105735
-0.100156
-0.0971489
-0.094169
-0.0912163
-0.0882904
-0.0853912
-0.0825183
-0.0796716
-0.0768509
-0.0740558
-0.0712861
-0.0685417
-0.0658222
-0.0631276
-0.0604574
-0.0578116
-0.0551898
-0.0525919
-0.0500177
-0.0474669
-0.0449393
-0.0424347
-0.0399529
-0.0374937
-0.035057
-0.0326423
-0.0302497
-0.0278789
-0.0255296
-0.0232017
-0.0208951
-0.0186094
-0.0163445
-0.0141003
-0.0118764
-0.00967287
-0.00748935
-0.00532571
-0.00318177
-0.00105735
-0.100156
-0.0971489
-0.094169
-0.0912163
-0.0882904
-0.0853912
-0.0825183
-0.0796716
-0.0768509
-0.0740558
-0.0712861
-0.0685417
-0.0658222
-0.0631276
-0.0604574
-0.0578116
-0.0551898
-0.0525919
-0.0500177
-0.0474669
-0.0449393
-0.0424347
-0.0399529
-0.0374937
-0.035057
-0.0326423
-0.0302497
-0.0278789
-0.0255296
-0.0232017
-0.0208951
-0.0186094
-0.0163445
-0.0141003
-0.0118764
-0.00967287
-0.00748935
-0.00532571
-0.00318177
-0.00105735
-0.100156
-0.0971489
-0.094169
-0.0912163
-0.0882904
-0.0853912
-0.0825183
-0.0796716
-0.0768509
-0.0740558
-0.0712861
-0.0685417
-0.0658222
-0.0631276
-0.0604574
-0.0578116
-0.0551898
-0.0525919
-0.0500177
-0.0474669
-0.0449393
-0.0424347
-0.0399529
-0.0374937
-0.035057
-0.0326423
-0.0302497
-0.0278789
-0.0255296
-0.0232017
-0.0208951
-0.0186094
-0.0163445
-0.0141003
-0.0118764
-0.00967287
-0.00748935
-0.00532571
-0.00318177
-0.00105735
-0.100156
-0.0971489
-0.094169
-0.0912163
-0.0882904
-0.0853912
-0.0825183
-0.0796716
-0.0768509
-0.0740558
-0.0712861
-0.0685417
-0.0658222
-0.0631276
-0.0604574
-0.0578116
-0.0551898
-0.0525919
-0.0500177
-0.0474669
-0.0449393
-0.0424347
-0.0399529
-0.0374937
-0.035057
-0.0326423
-0.0302497
-0.0278789
-0.0255296
-0.0232017
-0.0208951
-0.0186094
-0.0163445
-0.0141003
-0.0118764
-0.00967287
-0.00748935
-0.00532571
-0.00318177
-0.00105735
-0.100156
-0.0971489
-0.094169
-0.0912163
-0.0882904
-0.0853912
-0.0825183
-0.0796716
-0.0768509
-0.0740558
-0.0712861
-0.0685417
-0.0658222
-0.0631276
-0.0604574
-0.0578116
-0.0551898
-0.0525919
-0.0500177
-0.0474669
-0.0449393
-0.0424347
-0.0399529
-0.0374937
-0.035057
-0.0326423
-0.0302497
-0.0278789
-0.0255296
-0.0232017
-0.0208951
-0.0186094
-0.0163445
-0.0141003
-0.0118764
-0.00967287
-0.00748935
-0.00532571
-0.00318177
-0.00105735
-0.100156
-0.0971489
-0.094169
-0.0912163
-0.0882904
-0.0853912
-0.0825183
-0.0796716
-0.0768509
-0.0740558
-0.0712861
-0.0685417
-0.0658222
-0.0631276
-0.0604574
-0.0578116
-0.0551898
-0.0525919
-0.0500177
-0.0474669
-0.0449393
-0.0424347
-0.0399529
-0.0374937
-0.035057
-0.0326423
-0.0302497
-0.0278789
-0.0255296
-0.0232017
-0.0208951
-0.0186094
-0.0163445
-0.0141003
-0.0118764
-0.00967287
-0.00748935
-0.00532571
-0.00318177
-0.00105735
-0.100156
-0.0971489
-0.094169
-0.0912163
-0.0882904
-0.0853912
-0.0825183
-0.0796716
-0.0768509
-0.0740558
-0.0712861
-0.0685417
-0.0658222
-0.0631276
-0.0604574
-0.0578116
-0.0551898
-0.0525919
-0.0500177
-0.0474669
-0.0449393
-0.0424347
-0.0399529
-0.0374937
-0.035057
-0.0326423
-0.0302497
-0.0278789
-0.0255296
-0.0232017
-0.0208951
-0.0186094
-0.0163445
-0.0141003
-0.0118764
-0.00967287
-0.00748935
-0.00532571
-0.00318177
-0.00105735
-0.100156
-0.0971489
-0.094169
-0.0912163
-0.0882904
-0.0853912
-0.0825183
-0.0796716
-0.0768509
-0.0740558
-0.0712861
-0.0685417
-0.0658222
-0.0631276
-0.0604574
-0.0578116
-0.0551898
-0.0525919
-0.0500177
-0.0474669
-0.0449393
-0.0424347
-0.0399529
-0.0374937
-0.035057
-0.0326423
-0.0302497
-0.0278789
-0.0255296
-0.0232017
-0.0208951
-0.0186094
-0.0163445
-0.0141003
-0.0118764
-0.00967287
-0.00748935
-0.00532571
-0.00318177
-0.00105735
-0.100156
-0.0971489
-0.094169
-0.0912163
-0.0882904
-0.0853912
-0.0825183
-0.0796716
-0.0768509
-0.0740558
-0.0712861
-0.0685417
-0.0658222
-0.0631276
-0.0604574
-0.0578116
-0.0551898
-0.0525919
-0.0500177
-0.0474669
-0.0449393
-0.0424347
-0.0399529
-0.0374937
-0.035057
-0.0326423
-0.0302497
-0.0278789
-0.0255296
-0.0232017
-0.0208951
-0.0186094
-0.0163445
-0.0141003
-0.0118764
-0.00967287
-0.00748935
-0.00532571
-0.00318177
-0.00105735
-0.100156
-0.0971489
-0.094169
-0.0912163
-0.0882904
-0.0853912
-0.0825183
-0.0796716
-0.0768509
-0.0740558
-0.0712861
-0.0685417
-0.0658222
-0.0631276
-0.0604574
-0.0578116
-0.0551898
-0.0525919
-0.0500177
-0.0474669
-0.0449393
-0.0424347
-0.0399529
-0.0374937
-0.035057
-0.0326423
-0.0302497
-0.0278789
-0.0255296
-0.0232017
-0.0208951
-0.0186094
-0.0163445
-0.0141003
-0.0118764
-0.00967287
-0.00748935
-0.00532571
-0.00318177
-0.00105735
-0.100156
-0.0971489
-0.094169
-0.0912163
-0.0882904
-0.0853912
-0.0825183
-0.0796716
-0.0768509
-0.0740558
-0.0712861
-0.0685417
-0.0658222
-0.0631276
-0.0604574
-0.0578116
-0.0551898
-0.0525919
-0.0500177
-0.0474669
-0.0449393
-0.0424347
-0.0399529
-0.0374937
-0.035057
-0.0326423
-0.0302497
-0.0278789
-0.0255296
-0.0232017
-0.0208951
-0.0186094
-0.0163445
-0.0141003
-0.0118764
-0.00967287
-0.00748935
-0.00532571
-0.00318177
-0.00105735
-0.100156
-0.0971489
-0.094169
-0.0912163
-0.0882904
-0.0853912
-0.0825183
-0.0796716
-0.0768509
-0.0740558
-0.0712861
-0.0685417
-0.0658222
-0.0631276
-0.0604574
-0.0578116
-0.0551898
-0.0525919
-0.0500177
-0.0474669
-0.0449393
-0.0424347
-0.0399529
-0.0374937
-0.035057
-0.0326423
-0.0302497
-0.0278789
-0.0255296
-0.0232017
-0.0208951
-0.0186094
-0.0163445
-0.0141003