/*--------------------------------*- C++ -*----------------------------------*\
| =========                 |                                                 |
| \\      /  F ield         | OpenFOAM: The Open Source CFD Toolbox           |
|  \\    /   O peration     | Version:  2006                                  |
|   \\  /    A nd           | Website:  www.openfoam.com                      |
|    \\/     M anipulation  |                                                 |
\*---------------------------------------------------------------------------*/
FoamFile
{
    version     2.0;
    format      ascii;
    class       volScalarField;
    location    "0";
    object      Cy;
}
// * * * * * * * * * * * * * * * * * * * * * * * * * * * * * * * * * * * * * //

dimensions      [0 1 0 0 0 0 0];


internalField   nonuniform List<scalar> 
72100
(
2.39963e-05
2.39963e-05
2.39963e-05
2.39963e-05
2.39963e-05
2.39963e-05
2.39963e-05
2.39963e-05
2.39963e-05
2.39963e-05
2.39963e-05
2.39963e-05
2.39963e-05
2.39963e-05
2.39963e-05
2.39963e-05
2.39963e-05
2.39963e-05
2.39963e-05
2.39963e-05
2.39963e-05
2.39963e-05
2.39963e-05
2.39963e-05
2.39963e-05
2.39963e-05
2.39963e-05
2.39963e-05
2.39963e-05
2.39963e-05
2.39963e-05
2.39963e-05
2.39963e-05
2.39963e-05
2.39963e-05
2.39963e-05
2.39963e-05
2.39963e-05
2.39963e-05
2.39963e-05
7.2601e-05
7.2601e-05
7.2601e-05
7.2601e-05
7.2601e-05
7.2601e-05
7.2601e-05
7.2601e-05
7.2601e-05
7.2601e-05
7.2601e-05
7.2601e-05
7.2601e-05
7.2601e-05
7.2601e-05
7.2601e-05
7.2601e-05
7.2601e-05
7.2601e-05
7.2601e-05
7.2601e-05
7.2601e-05
7.2601e-05
7.2601e-05
7.2601e-05
7.2601e-05
7.2601e-05
7.2601e-05
7.2601e-05
7.2601e-05
7.2601e-05
7.2601e-05
7.2601e-05
7.2601e-05
7.2601e-05
7.2601e-05
7.2601e-05
7.2601e-05
7.2601e-05
7.2601e-05
0.000122445
0.000122445
0.000122445
0.000122445
0.000122445
0.000122445
0.000122445
0.000122445
0.000122445
0.000122445
0.000122445
0.000122445
0.000122445
0.000122445
0.000122445
0.000122445
0.000122445
0.000122445
0.000122445
0.000122445
0.000122445
0.000122445
0.000122445
0.000122445
0.000122445
0.000122445
0.000122445
0.000122445
0.000122445
0.000122445
0.000122445
0.000122445
0.000122445
0.000122445
0.000122445
0.000122445
0.000122445
0.000122445
0.000122445
0.000122445
0.000173561
0.000173561
0.000173561
0.000173561
0.000173561
0.000173561
0.000173561
0.000173561
0.000173561
0.000173561
0.000173561
0.000173561
0.000173561
0.000173561
0.000173561
0.000173561
0.000173561
0.000173561
0.000173561
0.000173561
0.000173561
0.000173561
0.000173561
0.000173561
0.000173561
0.000173561
0.000173561
0.000173561
0.000173561
0.000173561
0.000173561
0.000173561
0.000173561
0.000173561
0.000173561
0.000173561
0.000173561
0.000173561
0.000173561
0.000173561
0.00022598
0.00022598
0.00022598
0.00022598
0.00022598
0.00022598
0.00022598
0.00022598
0.00022598
0.00022598
0.00022598
0.00022598
0.00022598
0.00022598
0.00022598
0.00022598
0.00022598
0.00022598
0.00022598
0.00022598
0.00022598
0.00022598
0.00022598
0.00022598
0.00022598
0.00022598
0.00022598
0.00022598
0.00022598
0.00022598
0.00022598
0.00022598
0.00022598
0.00022598
0.00022598
0.00022598
0.00022598
0.00022598
0.00022598
0.00022598
0.000279736
0.000279736
0.000279736
0.000279736
0.000279736
0.000279736
0.000279736
0.000279736
0.000279736
0.000279736
0.000279736
0.000279736
0.000279736
0.000279736
0.000279736
0.000279736
0.000279736
0.000279736
0.000279736
0.000279736
0.000279736
0.000279736
0.000279736
0.000279736
0.000279736
0.000279736
0.000279736
0.000279736
0.000279736
0.000279736
0.000279736
0.000279736
0.000279736
0.000279736
0.000279736
0.000279736
0.000279736
0.000279736
0.000279736
0.000279736
0.000334863
0.000334863
0.000334863
0.000334863
0.000334863
0.000334863
0.000334863
0.000334863
0.000334863
0.000334863
0.000334863
0.000334863
0.000334863
0.000334863
0.000334863
0.000334863
0.000334863
0.000334863
0.000334863
0.000334863
0.000334863
0.000334863
0.000334863
0.000334863
0.000334863
0.000334863
0.000334863
0.000334863
0.000334863
0.000334863
0.000334863
0.000334863
0.000334863
0.000334863
0.000334863
0.000334863
0.000334863
0.000334863
0.000334863
0.000334863
0.000391396
0.000391396
0.000391396
0.000391396
0.000391396
0.000391396
0.000391396
0.000391396
0.000391396
0.000391396
0.000391396
0.000391396
0.000391396
0.000391396
0.000391396
0.000391396
0.000391396
0.000391396
0.000391396
0.000391396
0.000391396
0.000391396
0.000391396
0.000391396
0.000391396
0.000391396
0.000391396
0.000391396
0.000391396
0.000391396
0.000391396
0.000391396
0.000391396
0.000391396
0.000391396
0.000391396
0.000391396
0.000391396
0.000391396
0.000391396
0.00044937
0.00044937
0.00044937
0.00044937
0.00044937
0.00044937
0.00044937
0.00044937
0.00044937
0.00044937
0.00044937
0.00044937
0.00044937
0.00044937
0.00044937
0.00044937
0.00044937
0.00044937
0.00044937
0.00044937
0.00044937
0.00044937
0.00044937
0.00044937
0.00044937
0.00044937
0.00044937
0.00044937
0.00044937
0.00044937
0.00044937
0.00044937
0.00044937
0.00044937
0.00044937
0.00044937
0.00044937
0.00044937
0.00044937
0.00044937
0.000508824
0.000508824
0.000508824
0.000508824
0.000508824
0.000508824
0.000508824
0.000508824
0.000508824
0.000508824
0.000508824
0.000508824
0.000508824
0.000508824
0.000508824
0.000508824
0.000508824
0.000508824
0.000508824
0.000508824
0.000508824
0.000508824
0.000508824
0.000508824
0.000508824
0.000508824
0.000508824
0.000508824
0.000508824
0.000508824
0.000508824
0.000508824
0.000508824
0.000508824
0.000508824
0.000508824
0.000508824
0.000508824
0.000508824
0.000508824
0.000569793
0.000569793
0.000569793
0.000569793
0.000569793
0.000569793
0.000569793
0.000569793
0.000569793
0.000569793
0.000569793
0.000569793
0.000569793
0.000569793
0.000569793
0.000569793
0.000569793
0.000569793
0.000569793
0.000569793
0.000569793
0.000569793
0.000569793
0.000569793
0.000569793
0.000569793
0.000569793
0.000569793
0.000569793
0.000569793
0.000569793
0.000569793
0.000569793
0.000569793
0.000569793
0.000569793
0.000569793
0.000569793
0.000569793
0.000569793
0.000632318
0.000632318
0.000632318
0.000632318
0.000632318
0.000632318
0.000632318
0.000632318
0.000632318
0.000632318
0.000632318
0.000632318
0.000632318
0.000632318
0.000632318
0.000632318
0.000632318
0.000632318
0.000632318
0.000632318
0.000632318
0.000632318
0.000632318
0.000632318
0.000632318
0.000632318
0.000632318
0.000632318
0.000632318
0.000632318
0.000632318
0.000632318
0.000632318
0.000632318
0.000632318
0.000632318
0.000632318
0.000632318
0.000632318
0.000632318
0.000696437
0.000696437
0.000696437
0.000696437
0.000696437
0.000696437
0.000696437
0.000696437
0.000696437
0.000696437
0.000696437
0.000696437
0.000696437
0.000696437
0.000696437
0.000696437
0.000696437
0.000696437
0.000696437
0.000696437
0.000696437
0.000696437
0.000696437
0.000696437
0.000696437
0.000696437
0.000696437
0.000696437
0.000696437
0.000696437
0.000696437
0.000696437
0.000696437
0.000696437
0.000696437
0.000696437
0.000696437
0.000696437
0.000696437
0.000696437
0.000762192
0.000762192
0.000762192
0.000762192
0.000762192
0.000762192
0.000762192
0.000762192
0.000762192
0.000762192
0.000762192
0.000762192
0.000762192
0.000762192
0.000762192
0.000762192
0.000762192
0.000762192
0.000762192
0.000762192
0.000762192
0.000762192
0.000762192
0.000762192
0.000762192
0.000762192
0.000762192
0.000762192
0.000762192
0.000762192
0.000762192
0.000762192
0.000762192
0.000762192
0.000762192
0.000762192
0.000762192
0.000762192
0.000762192
0.000762192
0.000829623
0.000829623
0.000829623
0.000829623
0.000829623
0.000829623
0.000829623
0.000829623
0.000829623
0.000829623
0.000829623
0.000829623
0.000829623
0.000829623
0.000829623
0.000829623
0.000829623
0.000829623
0.000829623
0.000829623
0.000829623
0.000829623
0.000829623
0.000829623
0.000829623
0.000829623
0.000829623
0.000829623
0.000829623
0.000829623
0.000829623
0.000829623
0.000829623
0.000829623
0.000829623
0.000829623
0.000829623
0.000829623
0.000829623
0.000829623
0.000898774
0.000898774
0.000898774
0.000898774
0.000898774
0.000898774
0.000898774
0.000898774
0.000898774
0.000898774
0.000898774
0.000898774
0.000898774
0.000898774
0.000898774
0.000898774
0.000898774
0.000898774
0.000898774
0.000898774
0.000898774
0.000898774
0.000898774
0.000898774
0.000898774
0.000898774
0.000898774
0.000898774
0.000898774
0.000898774
0.000898774
0.000898774
0.000898774
0.000898774
0.000898774
0.000898774
0.000898774
0.000898774
0.000898774
0.000898774
0.000969689
0.000969689
0.000969689
0.000969689
0.000969689
0.000969689
0.000969689
0.000969689
0.000969689
0.000969689
0.000969689
0.000969689
0.000969689
0.000969689
0.000969689
0.000969689
0.000969689
0.000969689
0.000969689
0.000969689
0.000969689
0.000969689
0.000969689
0.000969689
0.000969689
0.000969689
0.000969689
0.000969689
0.000969689
0.000969689
0.000969689
0.000969689
0.000969689
0.000969689
0.000969689
0.000969689
0.000969689
0.000969689
0.000969689
0.000969689
0.00104241
0.00104241
0.00104241
0.00104241
0.00104241
0.00104241
0.00104241
0.00104241
0.00104241
0.00104241
0.00104241
0.00104241
0.00104241
0.00104241
0.00104241
0.00104241
0.00104241
0.00104241
0.00104241
0.00104241
0.00104241
0.00104241
0.00104241
0.00104241
0.00104241
0.00104241
0.00104241
0.00104241
0.00104241
0.00104241
0.00104241
0.00104241
0.00104241
0.00104241
0.00104241
0.00104241
0.00104241
0.00104241
0.00104241
0.00104241
0.00111699
0.00111699
0.00111699
0.00111699
0.00111699
0.00111699
0.00111699
0.00111699
0.00111699
0.00111699
0.00111699
0.00111699
0.00111699
0.00111699
0.00111699
0.00111699
0.00111699
0.00111699
0.00111699
0.00111699
0.00111699
0.00111699
0.00111699
0.00111699
0.00111699
0.00111699
0.00111699
0.00111699
0.00111699
0.00111699
0.00111699
0.00111699
0.00111699
0.00111699
0.00111699
0.00111699
0.00111699
0.00111699
0.00111699
0.00111699
0.00119347
0.00119347
0.00119347
0.00119347
0.00119347
0.00119347
0.00119347
0.00119347
0.00119347
0.00119347
0.00119347
0.00119347
0.00119347
0.00119347
0.00119347
0.00119347
0.00119347
0.00119347
0.00119347
0.00119347
0.00119347
0.00119347
0.00119347
0.00119347
0.00119347
0.00119347
0.00119347
0.00119347
0.00119347
0.00119347
0.00119347
0.00119347
0.00119347
0.00119347
0.00119347
0.00119347
0.00119347
0.00119347
0.00119347
0.00119347
0.0012719
0.0012719
0.0012719
0.0012719
0.0012719
0.0012719
0.0012719
0.0012719
0.0012719
0.0012719
0.0012719
0.0012719
0.0012719
0.0012719
0.0012719
0.0012719
0.0012719
0.0012719
0.0012719
0.0012719
0.0012719
0.0012719
0.0012719
0.0012719
0.0012719
0.0012719
0.0012719
0.0012719
0.0012719
0.0012719
0.0012719
0.0012719
0.0012719
0.0012719
0.0012719
0.0012719
0.0012719
0.0012719
0.0012719
0.0012719
0.00135233
0.00135233
0.00135233
0.00135233
0.00135233
0.00135233
0.00135233
0.00135233
0.00135233
0.00135233
0.00135233
0.00135233
0.00135233
0.00135233
0.00135233
0.00135233
0.00135233
0.00135233
0.00135233
0.00135233
0.00135233
0.00135233
0.00135233
0.00135233
0.00135233
0.00135233
0.00135233
0.00135233
0.00135233
0.00135233
0.00135233
0.00135233
0.00135233
0.00135233
0.00135233
0.00135233
0.00135233
0.00135233
0.00135233
0.00135233
0.00143482
0.00143482
0.00143482
0.00143482
0.00143482
0.00143482
0.00143482
0.00143482
0.00143482
0.00143482
0.00143482
0.00143482
0.00143482
0.00143482
0.00143482
0.00143482
0.00143482
0.00143482
0.00143482
0.00143482
0.00143482
0.00143482
0.00143482
0.00143482
0.00143482
0.00143482
0.00143482
0.00143482
0.00143482
0.00143482
0.00143482
0.00143482
0.00143482
0.00143482
0.00143482
0.00143482
0.00143482
0.00143482
0.00143482
0.00143482
0.0015194
0.0015194
0.0015194
0.0015194
0.0015194
0.0015194
0.0015194
0.0015194
0.0015194
0.0015194
0.0015194
0.0015194
0.0015194
0.0015194
0.0015194
0.0015194
0.0015194
0.0015194
0.0015194
0.0015194
0.0015194
0.0015194
0.0015194
0.0015194
0.0015194
0.0015194
0.0015194
0.0015194
0.0015194
0.0015194
0.0015194
0.0015194
0.0015194
0.0015194
0.0015194
0.0015194
0.0015194
0.0015194
0.0015194
0.0015194
0.00160614
0.00160614
0.00160614
0.00160614
0.00160614
0.00160614
0.00160614
0.00160614
0.00160614
0.00160614
0.00160614
0.00160614
0.00160614
0.00160614
0.00160614
0.00160614
0.00160614
0.00160614
0.00160614
0.00160614
0.00160614
0.00160614
0.00160614
0.00160614
0.00160614
0.00160614
0.00160614
0.00160614
0.00160614
0.00160614
0.00160614
0.00160614
0.00160614
0.00160614
0.00160614
0.00160614
0.00160614
0.00160614
0.00160614
0.00160614
0.0016951
0.0016951
0.0016951
0.0016951
0.0016951
0.0016951
0.0016951
0.0016951
0.0016951
0.0016951
0.0016951
0.0016951
0.0016951
0.0016951
0.0016951
0.0016951
0.0016951
0.0016951
0.0016951
0.0016951
0.0016951
0.0016951
0.0016951
0.0016951
0.0016951
0.0016951
0.0016951
0.0016951
0.0016951
0.0016951
0.0016951
0.0016951
0.0016951
0.0016951
0.0016951
0.0016951
0.0016951
0.0016951
0.0016951
0.0016951
0.00178632
0.00178632
0.00178632
0.00178632
0.00178632
0.00178632
0.00178632
0.00178632
0.00178632
0.00178632
0.00178632
0.00178632
0.00178632
0.00178632
0.00178632
0.00178632
0.00178632
0.00178632
0.00178632
0.00178632
0.00178632
0.00178632
0.00178632
0.00178632
0.00178632
0.00178632
0.00178632
0.00178632
0.00178632
0.00178632
0.00178632
0.00178632
0.00178632
0.00178632
0.00178632
0.00178632
0.00178632
0.00178632
0.00178632
0.00178632
0.00187987
0.00187987
0.00187987
0.00187987
0.00187987
0.00187987
0.00187987
0.00187987
0.00187987
0.00187987
0.00187987
0.00187987
0.00187987
0.00187987
0.00187987
0.00187987
0.00187987
0.00187987
0.00187987
0.00187987
0.00187987
0.00187987
0.00187987
0.00187987
0.00187987
0.00187987
0.00187987
0.00187987
0.00187987
0.00187987
0.00187987
0.00187987
0.00187987
0.00187987
0.00187987
0.00187987
0.00187987
0.00187987
0.00187987
0.00187987
0.00197581
0.00197581
0.00197581
0.00197581
0.00197581
0.00197581
0.00197581
0.00197581
0.00197581
0.00197581
0.00197581
0.00197581
0.00197581
0.00197581
0.00197581
0.00197581
0.00197581
0.00197581
0.00197581
0.00197581
0.00197581
0.00197581
0.00197581
0.00197581
0.00197581
0.00197581
0.00197581
0.00197581
0.00197581
0.00197581
0.00197581
0.00197581
0.00197581
0.00197581
0.00197581
0.00197581
0.00197581
0.00197581
0.00197581
0.00197581
0.0020742
0.0020742
0.0020742
0.0020742
0.0020742
0.0020742
0.0020742
0.0020742
0.0020742
0.0020742
0.0020742
0.0020742
0.0020742
0.0020742
0.0020742
0.0020742
0.0020742
0.0020742
0.0020742
0.0020742
0.0020742
0.0020742
0.0020742
0.0020742
0.0020742
0.0020742
0.0020742
0.0020742
0.0020742
0.0020742
0.0020742
0.0020742
0.0020742
0.0020742
0.0020742
0.0020742
0.0020742
0.0020742
0.0020742
0.0020742
0.00217509
0.00217509
0.00217509
0.00217509
0.00217509
0.00217509
0.00217509
0.00217509
0.00217509
0.00217509
0.00217509
0.00217509
0.00217509
0.00217509
0.00217509
0.00217509
0.00217509
0.00217509
0.00217509
0.00217509
0.00217509
0.00217509
0.00217509
0.00217509
0.00217509
0.00217509
0.00217509
0.00217509
0.00217509
0.00217509
0.00217509
0.00217509
0.00217509
0.00217509
0.00217509
0.00217509
0.00217509
0.00217509
0.00217509
0.00217509
0.00227855
0.00227855
0.00227855
0.00227855
0.00227855
0.00227855
0.00227855
0.00227855
0.00227855
0.00227855
0.00227855
0.00227855
0.00227855
0.00227855
0.00227855
0.00227855
0.00227855
0.00227855
0.00227855
0.00227855
0.00227855
0.00227855
0.00227855
0.00227855
0.00227855
0.00227855
0.00227855
0.00227855
0.00227855
0.00227855
0.00227855
0.00227855
0.00227855
0.00227855
0.00227855
0.00227855
0.00227855
0.00227855
0.00227855
0.00227855
0.00238466
0.00238466
0.00238466
0.00238466
0.00238466
0.00238466
0.00238466
0.00238466
0.00238466
0.00238466
0.00238466
0.00238466
0.00238466
0.00238466
0.00238466
0.00238466
0.00238466
0.00238466
0.00238466
0.00238466
0.00238466
0.00238466
0.00238466
0.00238466
0.00238466
0.00238466
0.00238466
0.00238466
0.00238466
0.00238466
0.00238466
0.00238466
0.00238466
0.00238466
0.00238466
0.00238466
0.00238466
0.00238466
0.00238466
0.00238466
0.00249347
0.00249347
0.00249347
0.00249347
0.00249347
0.00249347
0.00249347
0.00249347
0.00249347
0.00249347
0.00249347
0.00249347
0.00249347
0.00249347
0.00249347
0.00249347
0.00249347
0.00249347
0.00249347
0.00249347
0.00249347
0.00249347
0.00249347
0.00249347
0.00249347
0.00249347
0.00249347
0.00249347
0.00249347
0.00249347
0.00249347
0.00249347
0.00249347
0.00249347
0.00249347
0.00249347
0.00249347
0.00249347
0.00249347
0.00249347
0.00260505
0.00260505
0.00260505
0.00260505
0.00260505
0.00260505
0.00260505
0.00260505
0.00260505
0.00260505
0.00260505
0.00260505
0.00260505
0.00260505
0.00260505
0.00260505
0.00260505
0.00260505
0.00260505
0.00260505
0.00260505
0.00260505
0.00260505
0.00260505
0.00260505
0.00260505
0.00260505
0.00260505
0.00260505
0.00260505
0.00260505
0.00260505
0.00260505
0.00260505
0.00260505
0.00260505
0.00260505
0.00260505
0.00260505
0.00260505
0.00271949
0.00271949
0.00271949
0.00271949
0.00271949
0.00271949
0.00271949
0.00271949
0.00271949
0.00271949
0.00271949
0.00271949
0.00271949
0.00271949
0.00271949
0.00271949
0.00271949
0.00271949
0.00271949
0.00271949
0.00271949
0.00271949
0.00271949
0.00271949
0.00271949
0.00271949
0.00271949
0.00271949
0.00271949
0.00271949
0.00271949
0.00271949
0.00271949
0.00271949
0.00271949
0.00271949
0.00271949
0.00271949
0.00271949
0.00271949
0.00283684
0.00283684
0.00283684
0.00283684
0.00283684
0.00283684
0.00283684
0.00283684
0.00283684
0.00283684
0.00283684
0.00283684
0.00283684
0.00283684
0.00283684
0.00283684
0.00283684
0.00283684
0.00283684
0.00283684
0.00283684
0.00283684
0.00283684
0.00283684
0.00283684
0.00283684
0.00283684
0.00283684
0.00283684
0.00283684
0.00283684
0.00283684
0.00283684
0.00283684
0.00283684
0.00283684
0.00283684
0.00283684
0.00283684
0.00283684
0.00295718
0.00295718
0.00295718
0.00295718
0.00295718
0.00295718
0.00295718
0.00295718
0.00295718
0.00295718
0.00295718
0.00295718
0.00295718
0.00295718
0.00295718
0.00295718
0.00295718
0.00295718
0.00295718
0.00295718
0.00295718
0.00295718
0.00295718
0.00295718
0.00295718
0.00295718
0.00295718
0.00295718
0.00295718
0.00295718
0.00295718
0.00295718
0.00295718
0.00295718
0.00295718
0.00295718
0.00295718
0.00295718
0.00295718
0.00295718
0.00308059
0.00308059
0.00308059
0.00308059
0.00308059
0.00308059
0.00308059
0.00308059
0.00308059
0.00308059
0.00308059
0.00308059
0.00308059
0.00308059
0.00308059
0.00308059
0.00308059
0.00308059
0.00308059
0.00308059
0.00308059
0.00308059
0.00308059
0.00308059
0.00308059
0.00308059
0.00308059
0.00308059
0.00308059
0.00308059
0.00308059
0.00308059
0.00308059
0.00308059
0.00308059
0.00308059
0.00308059
0.00308059
0.00308059
0.00308059
0.00320715
0.00320715
0.00320715
0.00320715
0.00320715
0.00320715
0.00320715
0.00320715
0.00320715
0.00320715
0.00320715
0.00320715
0.00320715
0.00320715
0.00320715
0.00320715
0.00320715
0.00320715
0.00320715
0.00320715
0.00320715
0.00320715
0.00320715
0.00320715
0.00320715
0.00320715
0.00320715
0.00320715
0.00320715
0.00320715
0.00320715
0.00320715
0.00320715
0.00320715
0.00320715
0.00320715
0.00320715
0.00320715
0.00320715
0.00320715
0.00333694
0.00333694
0.00333694
0.00333694
0.00333694
0.00333694
0.00333694
0.00333694
0.00333694
0.00333694
0.00333694
0.00333694
0.00333694
0.00333694
0.00333694
0.00333694
0.00333694
0.00333694
0.00333694
0.00333694
0.00333694
0.00333694
0.00333694
0.00333694
0.00333694
0.00333694
0.00333694
0.00333694
0.00333694
0.00333694
0.00333694
0.00333694
0.00333694
0.00333694
0.00333694
0.00333694
0.00333694
0.00333694
0.00333694
0.00333694
0.00347004
0.00347004
0.00347004
0.00347004
0.00347004
0.00347004
0.00347004
0.00347004
0.00347004
0.00347004
0.00347004
0.00347004
0.00347004
0.00347004
0.00347004
0.00347004
0.00347004
0.00347004
0.00347004
0.00347004
0.00347004
0.00347004
0.00347004
0.00347004
0.00347004
0.00347004
0.00347004
0.00347004
0.00347004
0.00347004
0.00347004
0.00347004
0.00347004
0.00347004
0.00347004
0.00347004
0.00347004
0.00347004
0.00347004
0.00347004
0.00360653
0.00360653
0.00360653
0.00360653
0.00360653
0.00360653
0.00360653
0.00360653
0.00360653
0.00360653
0.00360653
0.00360653
0.00360653
0.00360653
0.00360653
0.00360653
0.00360653
0.00360653
0.00360653
0.00360653
0.00360653
0.00360653
0.00360653
0.00360653
0.00360653
0.00360653
0.00360653
0.00360653
0.00360653
0.00360653
0.00360653
0.00360653
0.00360653
0.00360653
0.00360653
0.00360653
0.00360653
0.00360653
0.00360653
0.00360653
0.0037465
0.0037465
0.0037465
0.0037465
0.0037465
0.0037465
0.0037465
0.0037465
0.0037465
0.0037465
0.0037465
0.0037465
0.0037465
0.0037465
0.0037465
0.0037465
0.0037465
0.0037465
0.0037465
0.0037465
0.0037465
0.0037465
0.0037465
0.0037465
0.0037465
0.0037465
0.0037465
0.0037465
0.0037465
0.0037465
0.0037465
0.0037465
0.0037465
0.0037465
0.0037465
0.0037465
0.0037465
0.0037465
0.0037465
0.0037465
0.00389004
0.00389004
0.00389004
0.00389004
0.00389004
0.00389004
0.00389004
0.00389004
0.00389004
0.00389004
0.00389004
0.00389004
0.00389004
0.00389004
0.00389004
0.00389004
0.00389004
0.00389004
0.00389004
0.00389004
0.00389004
0.00389004
0.00389004
0.00389004
0.00389004
0.00389004
0.00389004
0.00389004
0.00389004
0.00389004
0.00389004
0.00389004
0.00389004
0.00389004
0.00389004
0.00389004
0.00389004
0.00389004
0.00389004
0.00389004
0.00403725
0.00403725
0.00403725
0.00403725
0.00403725
0.00403725
0.00403725
0.00403725
0.00403725
0.00403725
0.00403725
0.00403725
0.00403725
0.00403725
0.00403725
0.00403725
0.00403725
0.00403725
0.00403725
0.00403725
0.00403725
0.00403725
0.00403725
0.00403725
0.00403725
0.00403725
0.00403725
0.00403725
0.00403725
0.00403725
0.00403725
0.00403725
0.00403725
0.00403725
0.00403725
0.00403725
0.00403725
0.00403725
0.00403725
0.00403725
0.0041882
0.0041882
0.0041882
0.0041882
0.0041882
0.0041882
0.0041882
0.0041882
0.0041882
0.0041882
0.0041882
0.0041882
0.0041882
0.0041882
0.0041882
0.0041882
0.0041882
0.0041882
0.0041882
0.0041882
0.0041882
0.0041882
0.0041882
0.0041882
0.0041882
0.0041882
0.0041882
0.0041882
0.0041882
0.0041882
0.0041882
0.0041882
0.0041882
0.0041882
0.0041882
0.0041882
0.0041882
0.0041882
0.0041882
0.0041882
0.00434301
0.00434301
0.00434301
0.00434301
0.00434301
0.00434301
0.00434301
0.00434301
0.00434301
0.00434301
0.00434301
0.00434301
0.00434301
0.00434301
0.00434301
0.00434301
0.00434301
0.00434301
0.00434301
0.00434301
0.00434301
0.00434301
0.00434301
0.00434301
0.00434301
0.00434301
0.00434301
0.00434301
0.00434301
0.00434301
0.00434301
0.00434301
0.00434301
0.00434301
0.00434301
0.00434301
0.00434301
0.00434301
0.00434301
0.00434301
0.00450177
0.00450177
0.00450177
0.00450177
0.00450177
0.00450177
0.00450177
0.00450177
0.00450177
0.00450177
0.00450177
0.00450177
0.00450177
0.00450177
0.00450177
0.00450177
0.00450177
0.00450177
0.00450177
0.00450177
0.00450177
0.00450177
0.00450177
0.00450177
0.00450177
0.00450177
0.00450177
0.00450177
0.00450177
0.00450177
0.00450177
0.00450177
0.00450177
0.00450177
0.00450177
0.00450177
0.00450177
0.00450177
0.00450177
0.00450177
0.00466457
0.00466457
0.00466457
0.00466457
0.00466457
0.00466457
0.00466457
0.00466457
0.00466457
0.00466457
0.00466457
0.00466457
0.00466457
0.00466457
0.00466457
0.00466457
0.00466457
0.00466457
0.00466457
0.00466457
0.00466457
0.00466457
0.00466457
0.00466457
0.00466457
0.00466457
0.00466457
0.00466457
0.00466457
0.00466457
0.00466457
0.00466457
0.00466457
0.00466457
0.00466457
0.00466457
0.00466457
0.00466457
0.00466457
0.00466457
0.00483153
0.00483153
0.00483153
0.00483153
0.00483153
0.00483153
0.00483153
0.00483153
0.00483153
0.00483153
0.00483153
0.00483153
0.00483153
0.00483153
0.00483153
0.00483153
0.00483153
0.00483153
0.00483153
0.00483153
0.00483153
0.00483153
0.00483153
0.00483153
0.00483153
0.00483153
0.00483153
0.00483153
0.00483153
0.00483153
0.00483153
0.00483153
0.00483153
0.00483153
0.00483153
0.00483153
0.00483153
0.00483153
0.00483153
0.00483153
0.00500275
0.00500275
0.00500275
0.00500275
0.00500275
0.00500275
0.00500275
0.00500275
0.00500275
0.00500275
0.00500275
0.00500275
0.00500275
0.00500275
0.00500275
0.00500275
0.00500275
0.00500275
0.00500275
0.00500275
0.00500275
0.00500275
0.00500275
0.00500275
0.00500275
0.00500275
0.00500275
0.00500275
0.00500275
0.00500275
0.00500275
0.00500275
0.00500275
0.00500275
0.00500275
0.00500275
0.00500275
0.00500275
0.00500275
0.00500275
0.00517833
0.00517833
0.00517833
0.00517833
0.00517833
0.00517833
0.00517833
0.00517833
0.00517833
0.00517833
0.00517833
0.00517833
0.00517833
0.00517833
0.00517833
0.00517833
0.00517833
0.00517833
0.00517833
0.00517833
0.00517833
0.00517833
0.00517833
0.00517833
0.00517833
0.00517833
0.00517833
0.00517833
0.00517833
0.00517833
0.00517833
0.00517833
0.00517833
0.00517833
0.00517833
0.00517833
0.00517833
0.00517833
0.00517833
0.00517833
0.00535839
0.00535839
0.00535839
0.00535839
0.00535839
0.00535839
0.00535839
0.00535839
0.00535839
0.00535839
0.00535839
0.00535839
0.00535839
0.00535839
0.00535839
0.00535839
0.00535839
0.00535839
0.00535839
0.00535839
0.00535839
0.00535839
0.00535839
0.00535839
0.00535839
0.00535839
0.00535839
0.00535839
0.00535839
0.00535839
0.00535839
0.00535839
0.00535839
0.00535839
0.00535839
0.00535839
0.00535839
0.00535839
0.00535839
0.00535839
0.00554304
0.00554304
0.00554304
0.00554304
0.00554304
0.00554304
0.00554304
0.00554304
0.00554304
0.00554304
0.00554304
0.00554304
0.00554304
0.00554304
0.00554304
0.00554304
0.00554304
0.00554304
0.00554304
0.00554304
0.00554304
0.00554304
0.00554304
0.00554304
0.00554304
0.00554304
0.00554304
0.00554304
0.00554304
0.00554304
0.00554304
0.00554304
0.00554304
0.00554304
0.00554304
0.00554304
0.00554304
0.00554304
0.00554304
0.00554304
0.0057324
0.0057324
0.0057324
0.0057324
0.0057324
0.0057324
0.0057324
0.0057324
0.0057324
0.0057324
0.0057324
0.0057324
0.0057324
0.0057324
0.0057324
0.0057324
0.0057324
0.0057324
0.0057324
0.0057324
0.0057324
0.0057324
0.0057324
0.0057324
0.0057324
0.0057324
0.0057324
0.0057324
0.0057324
0.0057324
0.0057324
0.0057324
0.0057324
0.0057324
0.0057324
0.0057324
0.0057324
0.0057324
0.0057324
0.0057324
0.00592659
0.00592659
0.00592659
0.00592659
0.00592659
0.00592659
0.00592659
0.00592659
0.00592659
0.00592659
0.00592659
0.00592659
0.00592659
0.00592659
0.00592659
0.00592659
0.00592659
0.00592659
0.00592659
0.00592659
0.00592659
0.00592659
0.00592659
0.00592659
0.00592659
0.00592659
0.00592659
0.00592659
0.00592659
0.00592659
0.00592659
0.00592659
0.00592659
0.00592659
0.00592659
0.00592659
0.00592659
0.00592659
0.00592659
0.00592659
0.00612574
0.00612574
0.00612574
0.00612574
0.00612574
0.00612574
0.00612574
0.00612574
0.00612574
0.00612574
0.00612574
0.00612574
0.00612574
0.00612574
0.00612574
0.00612574
0.00612574
0.00612574
0.00612574
0.00612574
0.00612574
0.00612574
0.00612574
0.00612574
0.00612574
0.00612574
0.00612574
0.00612574
0.00612574
0.00612574
0.00612574
0.00612574
0.00612574
0.00612574
0.00612574
0.00612574
0.00612574
0.00612574
0.00612574
0.00612574
0.00632996
0.00632996
0.00632996
0.00632996
0.00632996
0.00632996
0.00632996
0.00632996
0.00632996
0.00632996
0.00632996
0.00632996
0.00632996
0.00632996
0.00632996
0.00632996
0.00632996
0.00632996
0.00632996
0.00632996
0.00632996
0.00632996
0.00632996
0.00632996
0.00632996
0.00632996
0.00632996
0.00632996
0.00632996
0.00632996
0.00632996
0.00632996
0.00632996
0.00632996
0.00632996
0.00632996
0.00632996
0.00632996
0.00632996
0.00632996
0.00653939
0.00653939
0.00653939
0.00653939
0.00653939
0.00653939
0.00653939
0.00653939
0.00653939
0.00653939
0.00653939
0.00653939
0.00653939
0.00653939
0.00653939
0.00653939
0.00653939
0.00653939
0.00653939
0.00653939
0.00653939
0.00653939
0.00653939
0.00653939
0.00653939
0.00653939
0.00653939
0.00653939
0.00653939
0.00653939
0.00653939
0.00653939
0.00653939
0.00653939
0.00653939
0.00653939
0.00653939
0.00653939
0.00653939
0.00653939
0.00675416
0.00675416
0.00675416
0.00675416
0.00675416
0.00675416
0.00675416
0.00675416
0.00675416
0.00675416
0.00675416
0.00675416
0.00675416
0.00675416
0.00675416
0.00675416
0.00675416
0.00675416
0.00675416
0.00675416
0.00675416
0.00675416
0.00675416
0.00675416
0.00675416
0.00675416
0.00675416
0.00675416
0.00675416
0.00675416
0.00675416
0.00675416
0.00675416
0.00675416
0.00675416
0.00675416
0.00675416
0.00675416
0.00675416
0.00675416
0.00697441
0.00697441
0.00697441
0.00697441
0.00697441
0.00697441
0.00697441
0.00697441
0.00697441
0.00697441
0.00697441
0.00697441
0.00697441
0.00697441
0.00697441
0.00697441
0.00697441
0.00697441
0.00697441
0.00697441
0.00697441
0.00697441
0.00697441
0.00697441
0.00697441
0.00697441
0.00697441
0.00697441
0.00697441
0.00697441
0.00697441
0.00697441
0.00697441
0.00697441
0.00697441
0.00697441
0.00697441
0.00697441
0.00697441
0.00697441
0.00720028
0.00720028
0.00720028
0.00720028
0.00720028
0.00720028
0.00720028
0.00720028
0.00720028
0.00720028
0.00720028
0.00720028
0.00720028
0.00720028
0.00720028
0.00720028
0.00720028
0.00720028
0.00720028
0.00720028
0.00720028
0.00720028
0.00720028
0.00720028
0.00720028
0.00720028
0.00720028
0.00720028
0.00720028
0.00720028
0.00720028
0.00720028
0.00720028
0.00720028
0.00720028
0.00720028
0.00720028
0.00720028
0.00720028
0.00720028
0.00743191
0.00743191
0.00743191
0.00743191
0.00743191
0.00743191
0.00743191
0.00743191
0.00743191
0.00743191
0.00743191
0.00743191
0.00743191
0.00743191
0.00743191
0.00743191
0.00743191
0.00743191
0.00743191
0.00743191
0.00743191
0.00743191
0.00743191
0.00743191
0.00743191
0.00743191
0.00743191
0.00743191
0.00743191
0.00743191
0.00743191
0.00743191
0.00743191
0.00743191
0.00743191
0.00743191
0.00743191
0.00743191
0.00743191
0.00743191
0.00766944
0.00766944
0.00766944
0.00766944
0.00766944
0.00766944
0.00766944
0.00766944
0.00766944
0.00766944
0.00766944
0.00766944
0.00766944
0.00766944
0.00766944
0.00766944
0.00766944
0.00766944
0.00766944
0.00766944
0.00766944
0.00766944
0.00766944
0.00766944
0.00766944
0.00766944
0.00766944
0.00766944
0.00766944
0.00766944
0.00766944
0.00766944
0.00766944
0.00766944
0.00766944
0.00766944
0.00766944
0.00766944
0.00766944
0.00766944
0.00791304
0.00791304
0.00791304
0.00791304
0.00791304
0.00791304
0.00791304
0.00791304
0.00791304
0.00791304
0.00791304
0.00791304
0.00791304
0.00791304
0.00791304
0.00791304
0.00791304
0.00791304
0.00791304
0.00791304
0.00791304
0.00791304
0.00791304
0.00791304