/*--------------------------------*- C++ -*----------------------------------*\
| =========                 |                                                 |
| \\      /  F ield         | OpenFOAM: The Open Source CFD Toolbox           |
|  \\    /   O peration     | Version:  2506                                  |
|   \\  /    A nd           | Website:  www.openfoam.com                      |
|    \\/     M anipulation  |                                                 |
\*---------------------------------------------------------------------------*/
FoamFile
{
    version     2.0;
    format      ascii;
    arch        "LSB;label=32;scalar=64";
    class       polyBoundaryMesh;
    location    "constant/polyMesh";
    object      boundary;
}
// * * * * * * * * * * * * * * * * * * * * * * * * * * * * * * * * * * * * * //

7
(
    inlet
    {
        type            patch;
        nFaces          0;
        startFace       35729;
    }
    outlet
    {
        type            patch;
        nFaces          0;
        startFace       35729;
    }
    bottom
    {
        type            wall;
        inGroups        1(wall);
        nFaces          103;
        startFace       35729;
    }
    top
    {
        type            patch;
        nFaces          102;
        startFace       35832;
    }
    frontAndBack
    {
        type            empty;
        inGroups        1(empty);
        nFaces          36008;
        startFace       35934;
    }
    procBoundary3to0
    {
        type            processor;
        inGroups        1(processor);
        nFaces          178;
        startFace       71942;
        matchTolerance  0.0001;
        transform       unknown;
        myProcNo        3;
        neighbProcNo    0;
    }
    procBoundary3to2
    {
        type            processor;
        inGroups        1(processor);
        nFaces          175;
        startFace       72120;
        matchTolerance  0.0001;
        transform       unknown;
        myProcNo        3;
        neighbProcNo    2;
    }
)

// ************************************************************************* //
