/*--------------------------------*- C++ -*----------------------------------*\
| =========                 |                                                 |
| \\      /  F ield         | OpenFOAM: The Open Source CFD Toolbox           |
|  \\    /   O peration     | Version:  2506                                  |
|   \\  /    A nd           | Website:  www.openfoam.com                      |
|    \\/     M anipulation  |                                                 |
\*---------------------------------------------------------------------------*/
FoamFile
{
    version     2.0;
    format      ascii;
    arch        "LSB;label=32;scalar=64";
    class       polyBoundaryMesh;
    location    "constant/polyMesh";
    object      boundary;
}
// * * * * * * * * * * * * * * * * * * * * * * * * * * * * * * * * * * * * * //

6
(
    inlet
    {
        type            patch;
        nFaces          175;
        startFace       35772;
    }
    outlet
    {
        type            patch;
        nFaces          0;
        startFace       35947;
    }
    bottom
    {
        type            wall;
        inGroups        1(wall);
        nFaces          103;
        startFace       35947;
    }
    top
    {
        type            patch;
        nFaces          103;
        startFace       36050;
    }
    frontAndBack
    {
        type            empty;
        inGroups        1(empty);
        nFaces          36050;
        startFace       36153;
    }
    procBoundary2to3
    {
        type            processor;
        inGroups        1(processor);
        nFaces          175;
        startFace       72203;
        matchTolerance  0.0001;
        transform       unknown;
        myProcNo        2;
        neighbProcNo    3;
    }
)

// ************************************************************************* //
